<additional>
<e1Detector id="0" lane="240120119_0" pos="30" freq="30" file="RondPoint.out" friendlyPos="x"/>
<e1Detector id="1" lane="-240120119_0" pos="30" freq="30" file="RondPoint.out" friendlyPos="x"/>
<e1Detector id="2" lane="-1356_0" pos="322" freq="30" file="RondPoint.out" friendlyPos="x"/>
<e1Detector id="3" lane="-240120122_0" pos="328" freq="30" file="RondPoint.out" friendlyPos="x"/>
</additional>

