<?xml version="1.0" encoding="UTF-8"?>

<!-- generated on Fri Mar 21 13:26:07 2014 by SUMO netconvert Version 0.19.0
<?xml version="1.0" encoding="UTF-8"?>

<configuration xmlns:xsi="http://www.w3.org/2001/XMLSchema-instance" xsi:noNamespaceSchemaLocation="http://sumo-sim.org/xsd/netconvertConfiguration.xsd">

    <input>
        <osm-files value="data/RondPoint.osm"/>
    </input>

    <output>
        <output-file value="data/RondPoint.net.xml"/>
    </output>

    <projection>
        <proj.utm value="true"/>
    </projection>

    <edge_removal>
        <remove-edges.by-vclass value="pedestrian,motorcycle,bicycle"/>
    </edge_removal>

    <processing>
        <no-turnarounds value="true"/>
    </processing>

</configuration>
-->

<net version="0.13" xmlns:xsi="http://www.w3.org/2001/XMLSchema-instance" xsi:noNamespaceSchemaLocation="http://sumo-sim.org/xsd/net_file.xsd">

    <location netOffset="-459974.24,-5401061.46" convBoundary="0.00,0.00,2364.26,2007.89" origBoundary="2.455297,48.761336,2.487469,48.779358" projParameter="+proj=utm +zone=31 +ellps=WGS84 +datum=WGS84 +units=m +no_defs"/>

    <edge id=":-108_0" function="internal">
        <lane id=":-108_0_0" index="0" speed="13.89" length="8.02" shape="1772.72,106.74 1775.34,114.28"/>
        <lane id=":-108_0_1" index="1" speed="13.89" length="8.02" shape="1769.60,107.81 1772.24,115.42"/>
    </edge>
    <edge id=":-108_2" function="internal">
        <lane id=":-108_2_0" index="0" speed="13.89" length="7.60" shape="1766.57,110.65 1768.66,111.67 1770.30,112.80 1771.49,114.05 1772.24,115.42"/>
    </edge>
    <edge id=":-118_0" function="internal">
        <lane id=":-118_0_0" index="0" speed="13.89" length="6.67" shape="1709.91,136.78 1711.20,136.92 1712.35,136.56 1713.35,135.70 1714.20,134.34"/>
        <lane id=":-118_0_1" index="1" speed="13.89" length="6.67" shape="1709.91,136.78 1712.60,137.36 1714.70,137.38 1716.23,136.86 1717.17,135.78"/>
    </edge>
    <edge id=":-118_2" function="internal">
        <lane id=":-118_2_0" index="0" speed="13.89" length="9.19" shape="1709.91,136.78 1718.75,139.87"/>
        <lane id=":-118_2_1" index="1" speed="13.89" length="9.19" shape="1709.00,139.95 1717.51,142.93"/>
    </edge>
    <edge id=":-124_0" function="internal">
        <lane id=":-124_0_0" index="0" speed="13.89" length="5.98" shape="1727.28,95.96 1728.99,96.04 1730.44,95.73 1731.62,95.03 1732.54,93.95"/>
    </edge>
    <edge id=":-124_1" function="internal">
        <lane id=":-124_1_0" index="0" speed="13.89" length="10.41" shape="1727.28,95.96 1730.20,96.67 1732.15,97.61 1734.08,98.68 1736.92,99.75"/>
    </edge>
    <edge id=":-124_2" function="internal">
        <lane id=":-124_2_0" index="0" speed="13.89" length="5.65" shape="1728.57,103.16 1729.29,101.66 1729.24,100.50 1728.41,99.69 1726.81,99.23"/>
    </edge>
    <edge id=":-124_3" function="internal">
        <lane id=":-124_3_0" index="0" speed="13.89" length="10.13" shape="1728.57,103.16 1730.42,100.84 1732.00,99.47 1733.55,98.08 1735.34,95.68"/>
    </edge>
    <edge id=":-124_4" function="internal">
        <lane id=":-124_4_0" index="0" speed="13.89" length="9.72" shape="1728.57,103.16 1730.30,101.12 1732.27,99.87 1734.48,99.42 1736.92,99.75"/>
    </edge>
    <edge id=":-124_5" function="internal">
        <lane id=":-124_5_0" index="0" speed="13.89" length="4.71" shape="1728.17,102.90 1728.58,101.44 1728.49,100.34 1727.90,99.61 1726.81,99.23"/>
    </edge>
    <edge id=":-124_6" function="internal">
        <lane id=":-124_6_0" index="0" speed="13.89" length="5.32" shape="1728.17,102.90 1732.54,93.95"/>
        <lane id=":-124_6_1" index="1" speed="13.89" length="5.32" shape="1734.76,95.32 1735.34,95.68"/>
    </edge>
    <edge id=":-124_8" function="internal">
        <lane id=":-124_8_0" index="0" speed="13.89" length="5.76" shape="1734.76,95.32 1734.38,96.88 1734.61,98.14 1735.46,99.10 1736.92,99.75"/>
    </edge>
    <edge id=":-134_0" function="internal">
        <lane id=":-134_0_0" index="0" speed="16.67" length="3.36" shape="1632.40,119.72 1635.06,121.77"/>
    </edge>
    <edge id=":-134_1" function="internal">
        <lane id=":-134_1_0" index="0" speed="16.67" length="3.73" shape="1631.78,122.97 1635.35,120.29"/>
        <lane id=":-134_1_1" index="1" speed="16.67" length="3.73" shape="1631.78,122.97 1634.72,123.53"/>
    </edge>
    <edge id=":-136_0" function="internal">
        <lane id=":-136_0_0" index="0" speed="16.67" length="0.10" shape="1631.94,132.26 1631.92,132.26"/>
        <lane id=":-136_0_1" index="1" speed="16.67" length="0.10" shape="1632.53,129.02 1632.55,129.02"/>
    </edge>
    <edge id=":-140_0" function="internal">
        <lane id=":-140_0_0" index="0" speed="13.89" length="3.47" shape="1680.62,141.80 1677.35,140.63"/>
    </edge>
    <edge id=":-140_1" function="internal">
        <lane id=":-140_1_0" index="0" speed="13.89" length="2.76" shape="1680.63,141.77 1677.35,140.63"/>
        <lane id=":-140_1_1" index="1" speed="13.89" length="2.76" shape="1679.84,138.15 1677.94,137.39"/>
    </edge>
    <edge id=":-156_0" function="internal">
        <lane id=":-156_0_0" index="0" speed="13.89" length="6.22" shape="1711.77,151.11 1705.91,149.04"/>
        <lane id=":-156_0_1" index="1" speed="13.89" length="6.22" shape="1712.88,148.00 1707.01,145.92"/>
    </edge>
    <edge id=":-156_2" function="internal">
        <lane id=":-156_2_0" index="0" speed="13.89" length="5.10" shape="1707.65,153.06 1708.03,151.70 1707.87,150.58 1707.16,149.69 1705.91,149.04"/>
    </edge>
    <edge id=":-160_0" function="internal">
        <lane id=":-160_0_0" index="0" speed="13.89" length="6.97" shape="1704.24,167.13 1700.75,161.09"/>
    </edge>
    <edge id=":-160_1" function="internal">
        <lane id=":-160_1_0" index="0" speed="13.89" length="6.66" shape="1704.24,167.13 1704.88,160.50"/>
    </edge>
    <edge id=":-190_0" function="internal">
        <lane id=":-190_0_0" index="0" speed="22.22" length="5.04" shape="1851.85,523.12 1849.75,527.71"/>
    </edge>
    <edge id=":-190_1" function="internal">
        <lane id=":-190_1_0" index="0" speed="22.22" length="10.27" shape="1851.85,523.12 1849.38,525.79 1848.00,526.39 1847.73,524.92 1848.57,521.37"/>
    </edge>
    <edge id=":-190_2" function="internal">
        <lane id=":-190_2_0" index="0" speed="22.22" length="4.72" shape="1847.03,525.84 1848.57,521.37"/>
    </edge>
    <edge id=":-194_0" function="internal">
        <lane id=":-194_0_0" index="0" speed="13.89" length="0.10" shape="1882.76,391.22 1882.77,391.30"/>
        <lane id=":-194_0_1" index="1" speed="13.89" length="0.10" shape="1879.52,391.89 1879.51,391.80"/>
    </edge>
    <edge id=":-204_0" function="internal">
        <lane id=":-204_0_0" index="0" speed="13.89" length="3.32" shape="1816.97,214.53 1818.60,217.23"/>
        <lane id=":-204_0_1" index="1" speed="13.89" length="3.32" shape="1814.06,216.10 1815.87,219.08"/>
    </edge>
    <edge id=":-204_2" function="internal">
        <lane id=":-204_2_0" index="0" speed="13.89" length="3.35" shape="1816.71,214.67 1818.60,217.23"/>
        <lane id=":-204_2_1" index="1" speed="13.89" length="3.35" shape="1813.75,216.26 1815.87,219.08"/>
    </edge>
    <edge id=":-208_0" function="internal">
        <lane id=":-208_0_0" index="0" speed="13.89" length="0.10" shape="1780.72,176.91 1780.74,176.93"/>
        <lane id=":-208_0_1" index="1" speed="13.89" length="0.10" shape="1778.63,179.46 1778.59,179.43"/>
    </edge>
    <edge id=":-210_0" function="internal">
        <lane id=":-210_0_0" index="0" speed="13.89" length="0.10" shape="1773.93,186.72 1773.91,186.70"/>
        <lane id=":-210_0_1" index="1" speed="13.89" length="0.10" shape="1776.10,184.24 1776.14,184.28"/>
    </edge>
    <edge id=":-214_0" function="internal">
        <lane id=":-214_0_0" index="0" speed="13.89" length="10.66" shape="1798.85,214.86 1796.84,212.50 1794.99,211.33 1792.85,210.54 1790.01,209.32"/>
    </edge>
    <edge id=":-214_1" function="internal">
        <lane id=":-214_1_0" index="0" speed="13.89" length="10.66" shape="1798.85,214.86 1797.03,212.30 1795.72,210.59 1794.37,208.91 1792.45,206.42"/>
        <lane id=":-214_1_1" index="1" speed="13.89" length="10.66" shape="1801.57,212.99 1799.73,210.39 1798.40,208.66 1797.04,206.96 1795.09,204.44"/>
    </edge>
    <edge id=":-228_0" function="internal">
        <lane id=":-228_0_0" index="0" speed="18.06" length="5.52" shape="1884.73,432.21 1883.20,431.71 1882.06,431.91 1881.31,432.79 1880.96,434.35"/>
    </edge>
    <edge id=":-228_1" function="internal">
        <lane id=":-228_1_0" index="0" speed="13.89" length="11.06" shape="1884.73,432.21 1881.74,430.72 1879.74,429.63 1877.79,428.43 1874.97,426.64"/>
        <lane id=":-228_1_1" index="1" speed="13.89" length="11.06" shape="1886.17,429.24 1883.28,427.80 1881.34,426.74 1879.46,425.59 1876.74,423.85"/>
    </edge>
    <edge id=":-228_3" function="internal">
        <lane id=":-228_3_0" index="0" speed="18.06" length="12.30" shape="1883.91,422.44 1883.18,426.17 1882.30,428.81 1881.49,431.24 1880.96,434.35"/>
    </edge>
    <edge id=":-228_4" function="internal">
        <lane id=":-228_4_0" index="0" speed="13.89" length="5.64" shape="1880.64,422.02 1880.20,423.62 1879.41,424.47 1878.25,424.54 1876.74,423.85"/>
    </edge>
    <edge id=":-230_0" function="internal">
        <lane id=":-230_0_0" index="0" speed="13.89" length="0.14" shape="1890.82,435.17 1890.67,435.09"/>
        <lane id=":-230_0_1" index="1" speed="13.89" length="0.14" shape="1892.28,432.21 1892.24,432.19"/>
    </edge>
    <edge id=":-258_0" function="internal">
        <lane id=":-258_0_0" index="0" speed="13.89" length="0.10" shape="2289.87,690.70 2289.87,690.70"/>
        <lane id=":-258_0_1" index="1" speed="13.89" length="0.10" shape="2288.05,693.45 2288.05,693.45"/>
    </edge>
    <edge id=":-280_0" function="internal">
        <lane id=":-280_0_0" index="0" speed="13.89" length="10.17" shape="1884.59,403.62 1885.23,406.15 1886.37,408.34 1888.01,410.19 1890.16,411.70"/>
    </edge>
    <edge id=":-280_1" function="internal">
        <lane id=":-280_1_0" index="0" speed="13.89" length="13.08" shape="1881.32,404.09 1882.35,407.83 1883.66,410.30 1884.63,412.79 1884.68,416.53"/>
    </edge>
    <edge id=":-280_2" function="internal">
        <lane id=":-280_2_0" index="0" speed="13.89" length="13.08" shape="1878.12,407.02 1881.61,408.38 1883.58,410.18 1885.43,412.28 1888.55,414.58"/>
    </edge>
    <edge id=":-280_3" function="internal">
        <lane id=":-280_3_0" index="0" speed="13.89" length="7.96" shape="1877.37,410.23 1879.37,411.01 1880.71,412.25 1881.39,413.95 1881.41,416.10"/>
    </edge>
    <edge id=":-314_0" function="internal">
        <lane id=":-314_0_0" index="0" speed="22.22" length="0.10" shape="1535.25,991.51 1535.22,991.47"/>
    </edge>
    <edge id=":-314_1" function="internal">
        <lane id=":-314_1_0" index="0" speed="22.22" length="0.10" shape="1537.55,989.14 1537.57,989.16"/>
    </edge>
    <edge id=":-318_0" function="internal">
        <lane id=":-318_0_0" index="0" speed="22.22" length="0.10" shape="1432.08,888.09 1432.08,888.09"/>
    </edge>
    <edge id=":-318_1" function="internal">
        <lane id=":-318_1_0" index="0" speed="22.22" length="0.10" shape="1434.44,885.78 1434.44,885.78"/>
    </edge>
    <edge id=":-322_0" function="internal">
        <lane id=":-322_0_0" index="0" speed="18.06" length="7.15" shape="1400.66,855.99 1399.57,855.32 1398.07,855.11 1396.16,855.37 1393.85,856.11"/>
    </edge>
    <edge id=":-322_1" function="internal">
        <lane id=":-322_1_0" index="0" speed="22.22" length="10.10" shape="1400.66,855.99 1398.57,853.86 1397.12,852.39 1395.67,850.92 1393.57,848.80"/>
    </edge>
    <edge id=":-322_2" function="internal">
        <lane id=":-322_2_0" index="0" speed="22.22" length="10.12" shape="1395.91,846.48 1398.01,848.60 1399.47,850.07 1400.93,851.55 1403.02,853.68"/>
    </edge>
    <edge id=":-322_3" function="internal">
        <lane id=":-322_3_0" index="0" speed="18.06" length="7.65" shape="1395.91,846.48 1398.16,849.48 1398.56,852.08 1397.87,853.15"/>
    </edge>
    <edge id=":-322_6" function="internal">
        <lane id=":-322_6_0" index="0" speed="18.06" length="5.11" shape="1397.87,853.15 1397.13,854.29 1393.85,856.11"/>
    </edge>
    <edge id=":-322_4" function="internal">
        <lane id=":-322_4_0" index="0" speed="18.06" length="5.60" shape="1392.66,853.03 1394.10,852.23 1394.73,851.26 1394.55,850.12 1393.57,848.80"/>
    </edge>
    <edge id=":-322_5" function="internal">
        <lane id=":-322_5_0" index="0" speed="18.06" length="10.98" shape="1392.66,853.03 1395.96,852.05 1398.78,851.83 1401.13,852.38 1403.02,853.68"/>
    </edge>
    <edge id=":-360_0" function="internal">
        <lane id=":-360_0_0" index="0" speed="13.89" length="4.92" shape="1014.75,945.25 1015.28,946.47 1016.08,947.26 1017.15,947.61 1018.48,947.53"/>
    </edge>
    <edge id=":-362_0" function="internal">
        <lane id=":-362_0_0" index="0" speed="13.89" length="5.38" shape="1124.55,932.11 1124.10,930.77 1123.29,929.92 1122.11,929.55 1120.56,929.67"/>
    </edge>
    <edge id=":-362_1" function="internal">
        <lane id=":-362_1_0" index="0" speed="13.89" length="9.83" shape="1124.55,932.11 1122.01,922.61"/>
    </edge>
    <edge id=":-362_2" function="internal">
        <lane id=":-362_2_0" index="0" speed="13.89" length="10.59" shape="1124.55,932.11 1124.49,929.18 1125.40,926.99 1127.27,925.53 1130.10,924.81"/>
    </edge>
    <edge id=":-362_3" function="internal">
        <lane id=":-362_3_0" index="0" speed="13.89" length="5.06" shape="1130.46,928.09 1129.11,928.43 1128.21,929.13 1127.78,930.18 1127.80,931.58"/>
    </edge>
    <edge id=":-362_4" function="internal">
        <lane id=":-362_4_0" index="0" speed="13.89" length="10.03" shape="1130.46,928.09 1127.50,928.42 1125.48,928.70 1123.47,929.07 1120.56,929.67"/>
    </edge>
    <edge id=":-362_5" function="internal">
        <lane id=":-362_5_0" index="0" speed="13.89" length="7.40" shape="1130.46,928.09 1127.62,928.00 1125.26,927.05 1123.81,925.66"/>
    </edge>
    <edge id=":-362_12" function="internal">
        <lane id=":-362_12_0" index="0" speed="13.89" length="3.56" shape="1123.81,925.66 1123.39,925.26 1122.01,922.61"/>
    </edge>
    <edge id=":-362_6" function="internal">
        <lane id=":-362_6_0" index="0" speed="13.89" length="6.54" shape="1125.11,921.46 1125.94,923.07 1127.05,924.17 1128.43,924.74 1130.10,924.81"/>
    </edge>
    <edge id=":-362_7" function="internal">
        <lane id=":-362_7_0" index="0" speed="13.89" length="10.49" shape="1125.11,921.46 1126.15,924.33 1126.80,926.43 1127.29,928.57 1127.80,931.58"/>
    </edge>
    <edge id=":-362_8" function="internal">
        <lane id=":-362_8_0" index="0" speed="13.89" length="11.10" shape="1125.11,921.46 1125.76,924.50 1125.21,926.89 1123.48,928.61 1120.56,929.67"/>
    </edge>
    <edge id=":-362_9" function="internal">
        <lane id=":-362_9_0" index="0" speed="13.89" length="5.19" shape="1119.89,926.44 1121.25,925.94 1122.06,925.14 1122.32,924.03 1122.01,922.61"/>
    </edge>
    <edge id=":-362_10" function="internal">
        <lane id=":-362_10_0" index="0" speed="13.89" length="10.35" shape="1119.89,926.44 1122.85,925.83 1124.97,925.44 1127.10,925.15 1130.10,924.81"/>
    </edge>
    <edge id=":-362_11" function="internal">
        <lane id=":-362_11_0" index="0" speed="13.89" length="7.60" shape="1119.89,926.44 1122.95,926.23 1125.29,927.01 1126.67,928.53"/>
    </edge>
    <edge id=":-362_13" function="internal">
        <lane id=":-362_13_0" index="0" speed="13.89" length="3.27" shape="1126.67,928.53 1126.91,928.79 1127.80,931.58"/>
    </edge>
    <edge id=":-370_0" function="internal">
        <lane id=":-370_0_0" index="0" speed="13.89" length="5.07" shape="1091.46,832.83 1090.86,831.56 1090.00,830.82 1088.89,830.60 1087.52,830.90"/>
    </edge>
    <edge id=":-370_1" function="internal">
        <lane id=":-370_1_0" index="0" speed="13.89" length="9.74" shape="1091.46,832.83 1088.40,823.58"/>
    </edge>
    <edge id=":-370_2" function="internal">
        <lane id=":-370_2_0" index="0" speed="13.89" length="7.25" shape="1091.46,832.83 1090.99,829.97 1091.51,827.60 1092.71,826.09"/>
    </edge>
    <edge id=":-370_9" function="internal">
        <lane id=":-370_9_0" index="0" speed="13.89" length="3.33" shape="1092.71,826.09 1093.01,825.72 1095.50,824.32"/>
    </edge>
    <edge id=":-370_3" function="internal">
        <lane id=":-370_3_0" index="0" speed="13.89" length="5.51" shape="1096.69,827.40 1095.40,828.13 1094.63,829.11 1094.37,830.35 1094.62,831.84"/>
    </edge>
    <edge id=":-370_4" function="internal">
        <lane id=":-370_4_0" index="0" speed="13.89" length="9.81" shape="1096.69,827.40 1087.52,830.90"/>
    </edge>
    <edge id=":-370_5" function="internal">
        <lane id=":-370_5_0" index="0" speed="13.89" length="10.48" shape="1096.69,827.40 1093.88,828.05 1091.56,827.63 1089.74,826.14 1088.40,823.58"/>
    </edge>
    <edge id=":-370_6" function="internal">
        <lane id=":-370_6_0" index="0" speed="13.89" length="5.04" shape="1091.51,822.49 1092.16,823.72 1093.03,824.43 1094.15,824.63 1095.50,824.32"/>
    </edge>
    <edge id=":-370_7" function="internal">
        <lane id=":-370_7_0" index="0" speed="13.89" length="9.86" shape="1091.51,822.49 1094.62,831.84"/>
    </edge>
    <edge id=":-370_8" function="internal">
        <lane id=":-370_8_0" index="0" speed="13.89" length="7.33" shape="1091.51,822.49 1092.07,825.30 1091.59,827.64 1090.28,829.25"/>
    </edge>
    <edge id=":-370_10" function="internal">
        <lane id=":-370_10_0" index="0" speed="13.89" length="3.24" shape="1090.28,829.25 1090.07,829.51 1087.52,830.90"/>
    </edge>
    <edge id=":-416_0" function="internal">
        <lane id=":-416_0_0" index="0" speed="18.06" length="7.15" shape="810.31,794.23 809.94,792.34 810.22,790.71 811.15,789.35 812.73,788.26"/>
    </edge>
    <edge id=":-416_1" function="internal">
        <lane id=":-416_1_0" index="0" speed="18.06" length="2.34" shape="814.22,791.20 813.70,791.56 813.40,792.00 813.31,792.53 813.43,793.15"/>
    </edge>
    <edge id=":-418_0" function="internal">
        <lane id=":-418_0_0" index="0" speed="11.11" length="5.01" shape="1062.07,756.20 1061.41,754.99 1060.53,754.29 1059.41,754.09 1058.08,754.39"/>
    </edge>
    <edge id=":-418_1" function="internal">
        <lane id=":-418_1_0" index="0" speed="13.89" length="9.50" shape="1062.07,756.20 1058.74,747.30"/>
    </edge>
    <edge id=":-418_2" function="internal">
        <lane id=":-418_2_0" index="0" speed="13.89" length="9.50" shape="1061.83,746.14 1065.16,755.04"/>
    </edge>
    <edge id=":-418_3" function="internal">
        <lane id=":-418_3_0" index="0" speed="11.11" length="10.32" shape="1061.83,746.14 1062.43,748.89 1062.01,751.18 1060.56,753.02 1058.08,754.39"/>
    </edge>
    <edge id=":-418_4" function="internal">
        <lane id=":-418_4_0" index="0" speed="11.11" length="5.03" shape="1056.90,751.31 1058.11,750.64 1058.82,749.75 1059.03,748.63 1058.74,747.30"/>
    </edge>
    <edge id=":-418_5" function="internal">
        <lane id=":-418_5_0" index="0" speed="11.11" length="10.36" shape="1056.90,751.31 1059.67,750.68 1061.97,751.09 1063.80,752.55 1065.16,755.04"/>
    </edge>
    <edge id=":-434_0" function="internal">
        <lane id=":-434_0_0" index="0" speed="22.22" length="5.02" shape="828.30,846.35 827.66,845.13 826.79,844.41 825.68,844.19 824.33,844.48"/>
    </edge>
    <edge id=":-434_1" function="internal">
        <lane id=":-434_1_0" index="0" speed="22.22" length="9.71" shape="828.30,846.35 825.12,837.18"/>
    </edge>
    <edge id=":-434_2" function="internal">
        <lane id=":-434_2_0" index="0" speed="15.28" length="7.22" shape="828.30,846.35 827.76,843.56 828.23,841.23 829.47,839.66"/>
    </edge>
    <edge id=":-434_12" function="internal">
        <lane id=":-434_12_0" index="0" speed="15.28" length="3.27" shape="829.47,839.66 829.72,839.35 832.23,837.94"/>
    </edge>
    <edge id=":-434_3" function="internal">
        <lane id=":-434_3_0" index="0" speed="15.28" length="5.33" shape="833.43,841.01 832.15,841.73 831.39,842.68 831.14,843.86 831.41,845.27"/>
    </edge>
    <edge id=":-434_4" function="internal">
        <lane id=":-434_4_0" index="0" speed="15.28" length="9.74" shape="833.43,841.01 824.33,844.48"/>
    </edge>
    <edge id=":-434_5" function="internal">
        <lane id=":-434_5_0" index="0" speed="15.28" length="10.54" shape="833.43,841.01 830.61,841.68 828.28,841.26 826.45,839.76 825.12,837.18"/>
    </edge>
    <edge id=":-434_6" function="internal">
        <lane id=":-434_6_0" index="0" speed="15.28" length="5.05" shape="828.24,836.10 828.88,837.34 829.75,838.06 830.87,838.26 832.23,837.94"/>
    </edge>
    <edge id=":-434_7" function="internal">
        <lane id=":-434_7_0" index="0" speed="22.22" length="9.70" shape="828.24,836.10 831.41,845.27"/>
    </edge>
    <edge id=":-434_8" function="internal">
        <lane id=":-434_8_0" index="0" speed="22.22" length="7.26" shape="828.24,836.10 828.79,838.93 828.33,841.27 827.08,842.83"/>
    </edge>
    <edge id=":-434_13" function="internal">
        <lane id=":-434_13_0" index="0" speed="22.22" length="3.23" shape="827.08,842.83 826.84,843.12 824.33,844.48"/>
    </edge>
    <edge id=":-434_9" function="internal">
        <lane id=":-434_9_0" index="0" speed="22.22" length="5.25" shape="823.19,841.38 824.44,840.70 825.17,839.78 825.40,838.60 825.12,837.18"/>
    </edge>
    <edge id=":-434_10" function="internal">
        <lane id=":-434_10_0" index="0" speed="15.28" length="9.67" shape="823.19,841.38 832.23,837.94"/>
    </edge>
    <edge id=":-434_11" function="internal">
        <lane id=":-434_11_0" index="0" speed="22.22" length="10.42" shape="823.19,841.38 825.99,840.78 828.29,841.23 830.10,842.73 831.41,845.27"/>
    </edge>
    <edge id=":-452_0" function="internal">
        <lane id=":-452_0_0" index="0" speed="18.06" length="5.02" shape="742.89,896.79 742.21,895.59 741.31,894.89 740.20,894.69 738.86,894.99"/>
    </edge>
    <edge id=":-452_1" function="internal">
        <lane id=":-452_1_0" index="0" speed="18.06" length="10.32" shape="742.89,896.79 742.23,894.04 742.62,891.74 744.04,889.89 746.51,888.50"/>
    </edge>
    <edge id=":-452_2" function="internal">
        <lane id=":-452_2_0" index="0" speed="18.06" length="5.00" shape="747.71,891.57 746.52,892.25 745.83,893.14 745.64,894.25 745.96,895.59"/>
    </edge>
    <edge id=":-452_3" function="internal">
        <lane id=":-452_3_0" index="0" speed="22.22" length="9.48" shape="747.71,891.57 738.86,894.99"/>
    </edge>
    <edge id=":-452_4" function="internal">
        <lane id=":-452_4_0" index="0" speed="22.22" length="9.45" shape="737.69,891.91 746.51,888.50"/>
    </edge>
    <edge id=":-452_5" function="internal">
        <lane id=":-452_5_0" index="0" speed="18.06" length="7.10" shape="737.69,891.91 740.43,891.29 742.72,891.70 744.27,892.90"/>
    </edge>
    <edge id=":-452_6" function="internal">
        <lane id=":-452_6_0" index="0" speed="18.06" length="3.20" shape="744.27,892.90 744.57,893.13 745.96,895.59"/>
    </edge>
    <edge id=":-466_0" function="internal">
        <lane id=":-466_0_0" index="0" speed="13.89" length="4.90" shape="768.92,960.32 767.76,960.76 766.90,961.50 766.33,962.53 766.05,963.86"/>
    </edge>
    <edge id=":-466_1" function="internal">
        <lane id=":-466_1_0" index="0" speed="13.89" length="8.56" shape="768.92,960.32 760.36,959.94"/>
    </edge>
    <edge id=":-466_2" function="internal">
        <lane id=":-466_2_0" index="0" speed="13.89" length="4.75" shape="762.76,963.56 762.71,962.29 762.29,961.26 761.51,960.48 760.36,959.94"/>
    </edge>
    <edge id=":-480_0" function="internal">
        <lane id=":-480_0_0" index="0" speed="13.89" length="4.67" shape="761.18,934.38 761.78,935.46 762.59,936.20 763.62,936.60 764.85,936.66"/>
    </edge>
    <edge id=":-480_1" function="internal">
        <lane id=":-480_1_0" index="0" speed="13.89" length="4.68" shape="757.00,939.77 757.86,938.89 758.33,937.89 758.41,936.79 758.11,935.59"/>
    </edge>
    <edge id=":-480_2" function="internal">
        <lane id=":-480_2_0" index="0" speed="13.89" length="8.45" shape="757.00,939.77 764.85,936.66"/>
    </edge>
    <edge id=":-488_0" function="internal">
        <lane id=":-488_0_0" index="0" speed="13.89" length="5.32" shape="756.98,957.65 756.03,956.89 754.88,956.51 753.55,956.50 752.03,956.86"/>
    </edge>
    <edge id=":-488_1" function="internal">
        <lane id=":-488_1_0" index="0" speed="13.89" length="8.58" shape="756.98,957.65 753.16,949.96"/>
    </edge>
    <edge id=":-488_2" function="internal">
        <lane id=":-488_2_0" index="0" speed="13.89" length="4.85" shape="750.97,953.74 752.14,953.15 752.90,952.33 753.24,951.26 753.16,949.96"/>
    </edge>
    <edge id=":-494_0" function="internal">
        <lane id=":-494_0_0" index="0" speed="18.06" length="3.32" shape="661.45,991.46 658.49,992.97"/>
    </edge>
    <edge id=":-548_0" function="internal">
        <lane id=":-548_0_0" index="0" speed="23.61" length="3.20" shape="611.40,1056.33 610.14,1059.27"/>
    </edge>
    <edge id=":-548_1" function="internal">
        <lane id=":-548_1_0" index="0" speed="25.00" length="2.29" shape="610.89,1056.07 610.14,1059.27"/>
        <lane id=":-548_1_1" index="1" speed="25.00" length="2.29" shape="607.15,1056.90 607.03,1058.18"/>
    </edge>
    <edge id=":-564_0" function="internal">
        <lane id=":-564_0_0" index="0" speed="26.39" length="3.01" shape="837.12,750.90 834.35,752.07"/>
        <lane id=":-564_0_1" index="1" speed="26.39" length="3.01" shape="836.07,747.78 833.29,748.91"/>
    </edge>
    <edge id=":-564_2" function="internal">
        <lane id=":-564_2_0" index="0" speed="27.78" length="3.73" shape="836.07,747.78 834.28,751.86"/>
        <lane id=":-564_2_1" index="1" speed="27.78" length="3.73" shape="836.07,747.78 833.23,748.73"/>
    </edge>
    <edge id=":-580_0" function="internal">
        <lane id=":-580_0_0" index="0" speed="25.00" length="14.60" shape="716.87,784.17 715.20,779.92 714.55,776.51 714.59,773.38 715.00,769.98"/>
    </edge>
    <edge id=":-580_1" function="internal">
        <lane id=":-580_1_0" index="0" speed="22.22" length="14.92" shape="712.99,784.76 713.51,781.06 714.01,777.37 714.51,773.68 715.00,769.98"/>
    </edge>
    <edge id=":-584_0" function="internal">
        <lane id=":-584_0_0" index="0" speed="18.06" length="8.89" shape="708.52,795.88 712.55,787.95"/>
    </edge>
    <edge id=":-584_1" function="internal">
        <lane id=":-584_1_0" index="0" speed="13.89" length="5.24" shape="711.38,797.55 714.54,793.75"/>
        <lane id=":-584_1_1" index="1" speed="13.89" length="5.24" shape="711.38,797.55 716.75,796.20"/>
    </edge>
    <edge id=":-586_0" function="internal">
        <lane id=":-586_0_0" index="0" speed="25.00" length="3.39" shape="690.70,870.77 688.94,873.42"/>
        <lane id=":-586_0_1" index="1" speed="25.00" length="3.39" shape="688.07,868.78 686.08,871.77"/>
    </edge>
    <edge id=":-586_2" function="internal">
        <lane id=":-586_2_0" index="0" speed="23.61" length="3.81" shape="689.27,869.69 686.08,871.77"/>
    </edge>
    <edge id=":-596_0" function="internal">
        <lane id=":-596_0_0" index="0" speed="25.00" length="8.91" shape="731.68,791.07 728.36,791.63 726.00,792.41 724.59,793.42 724.12,794.66"/>
    </edge>
    <edge id=":-596_1" function="internal">
        <lane id=":-596_1_0" index="0" speed="27.78" length="15.14" shape="733.29,787.56 728.48,787.73 724.65,787.00 721.79,785.38 719.91,782.87"/>
    </edge>
    <edge id=":-596_2" function="internal">
        <lane id=":-596_2_0" index="0" speed="20.83" length="9.08" shape="733.29,787.56 730.35,787.67 729.32,787.10 730.22,785.83 733.03,783.89"/>
    </edge>
    <edge id=":-596_3" function="internal">
        <lane id=":-596_3_0" index="0" speed="18.06" length="9.23" shape="723.88,781.10 724.39,782.75 725.80,783.30 728.11,782.73 731.31,781.07"/>
    </edge>
    <edge id=":-596_4" function="internal">
        <lane id=":-596_4_0" index="0" speed="22.22" length="13.56" shape="723.88,781.10 723.97,784.63 724.04,787.88 724.09,791.14 724.12,794.66"/>
    </edge>
    <edge id=":-596_5" function="internal">
        <lane id=":-596_5_0" index="0" speed="25.00" length="11.33" shape="723.88,781.10 723.75,785.29 723.05,786.98 721.77,786.18 719.91,782.87"/>
    </edge>
    <edge id=":-596_6" function="internal">
        <lane id=":-596_6_0" index="0" speed="20.83" length="5.80" shape="718.12,790.53 719.30,789.18 719.69,787.95 719.28,786.85 718.09,785.87"/>
    </edge>
    <edge id=":-596_7" function="internal">
        <lane id=":-596_7_0" index="0" speed="13.89" length="16.49" shape="718.12,790.53 722.03,787.79 725.23,786.75 728.61,785.95 733.03,783.89"/>
    </edge>
    <edge id=":-596_8" function="internal">
        <lane id=":-596_8_0" index="0" speed="18.06" length="6.40" shape="720.33,792.99 721.97,791.82 723.15,791.71 723.87,792.66 724.12,794.66"/>
    </edge>
    <edge id=":-600_0" function="internal">
        <lane id=":-600_0_0" index="0" speed="25.00" length="0.34" shape="723.99,758.98 723.67,758.87"/>
    </edge>
    <edge id=":-600_1" function="internal">
        <lane id=":-600_1_0" index="0" speed="25.00" length="14.30" shape="718.29,757.04 716.81,749.32"/>
        <lane id=":-600_1_1" index="1" speed="25.00" length="14.30" shape="718.29,757.04 719.56,753.31 720.83,748.94 722.35,743.66 724.41,737.22"/>
    </edge>
    <edge id=":-642_0" function="internal">
        <lane id=":-642_0_0" index="0" speed="27.78" length="7.29" shape="786.94,511.75 784.80,505.55"/>
        <lane id=":-642_0_1" index="1" speed="27.78" length="7.29" shape="790.24,511.72 787.76,504.09"/>
    </edge>
    <edge id=":-642_2" function="internal">