<?xml version="1.0" encoding="UTF-8"?>

<!-- generated on Thu Apr 10 15:40:00 2014 by SUMO duarouter Version 0.19.0
<?xml version="1.0" encoding="UTF-8"?>

<configuration xmlns:xsi="http://www.w3.org/2001/XMLSchema-instance" xsi:noNamespaceSchemaLocation="http://sumo-sim.org/xsd/duarouterConfiguration.xsd">

    <input>
        <net-file value="data/RondPoint.net.xml"/>
        <flow-files value="data/RondPoint.flow.xml"/>
    </input>

    <output>
        <output-file value="data/RondPoint.rou.xml"/>
    </output>

    <processing>
        <ignore-errors value="true"/>
        <repair value="true"/>
    </processing>

</configuration>
-->

<routes xmlns:xsi="http://www.w3.org/2001/XMLSchema-instance" xsi:noNamespaceSchemaLocation="http://sumo-sim.org/xsd/routes_file.xsd">
    <vType id="Vehicle" length="4.00" minGap="2.00" maxSpeed="90.00">
        <carFollowing-Krauss accel="3.60" decel="4.50" sigma="0.50"/>
    </vType>
    <vehicle id="VehicleFlowEastToNorth.0" type="Vehicle" depart="0.00">
        <route edges="-1274 -1354 -1358 105490284 -1370 -1366 -1290 -1288"/>
    </vehicle>
    <vehicle id="VehicleFlowEastToSouth.0" type="Vehicle" depart="0.00">
        <route edges="-1274 -1354 -1358 240142917#0 240142917#1 -1360 -1362 239331353 -1348#1 -1348#2 -1346 -1340#3 -1340#0 --1342 --1336#0"/>
    </vehicle>
    <vehicle id="VehicleFlowEastToWest.0" type="Vehicle" depart="0.00">
        <route edges="-1274 -1354 -1358 240142917#0 240142917#1 105490271#0 105490271#1 -1322#0 -1326#0 -1326#1 -1326#2"/>
    </vehicle>
    <vehicle id="VehicleFlowEastToWest_0.0" type="Vehicle" depart="0.00">
        <route edges="-1354 -1358 240142917#0 240142917#1 105490271#0 105490271#1 -1322#0 -1326#0 -1326#1 -1326#2"/>
    </vehicle>
    <vehicle id="VehicleFlowEastToWest_1.0" type="Vehicle" depart="0.00">
        <route edges="-1280#0 -1280#1 -1280#2 -1354 -1358 240142917#0 240142917#1 105490271#0 105490271#1 -1322#0 -1326#0 -1326#1 -1326#2"/>
    </vehicle>
    <vehicle id="VehicleFlowWestToEast.0" type="Vehicle" depart="0.00">
        <route edges="-1328#0 -1328#1 -1324 229259796#0 229259796#1 -1362 -1352 240143209 105490279#0 105490279#1 -1282#0 -1282#1"/>
    </vehicle>
    <vehicle id="VehicleFlowWestToEast_0.0" type="Vehicle" depart="0.00">
        <route edges="229259796#0 229259796#1 -1362 -1352 240143209 105490279#0 105490279#1 -1282#0 -1282#1"/>
    </vehicle>
    <vehicle id="VehicleFlowWestToNorth.0" type="Vehicle" depart="0.00">
        <route edges="-1328#0 -1328#1 -1324 229259796#0 229259796#1 -1362 -1352 240143209 240143210 -1358 105490284 -1370 -1366 -1290 -1288"/>
    </vehicle>
    <vehicle id="VehicleFlowWestToSouth.0" type="Vehicle" depart="0.00">
        <route edges="-1324 229259796#0 229259796#1 -1362 239331353 -1348#1 -1348#2 -1346 -1340#3 -1340#0 --1342 --1336#0"/>
    </vehicle>
    <vehicle id="VehicleFlowWestToEast.1" type="Vehicle" depart="6.67">
        <route edges="-1328#0 -1328#1 -1324 229259796#0 229259796#1 -1362 -1352 240143209 105490279#0 105490279#1 -1282#0 -1282#1"/>
    </vehicle>
    <vehicle id="VehicleFlowWestToEast_0.1" type="Vehicle" depart="8.57">
        <route edges="229259796#0 229259796#1 -1362 -1352 240143209 105490279#0 105490279#1 -1282#0 -1282#1"/>
    </vehicle>
    <vehicle id="VehicleFlowWestToEast.2" type="Vehicle" depart="13.33">
        <route edges="-1328#0 -1328#1 -1324 229259796#0 229259796#1 -1362 -1352 240143209 105490279#0 105490279#1 -1282#0 -1282#1"/>
    </vehicle>
    <vehicle id="VehicleFlowWestToEast_0.2" type="Vehicle" depart="17.14">
        <route edges="229259796#0 229259796#1 -1362 -1352 240143209 105490279#0 105490279#1 -1282#0 -1282#1"/>
    </vehicle>
    <vehicle id="VehicleFlowEastToWest.1" type="Vehicle" depart="18.75">
        <route edges="-1274 -1354 -1358 240142917#0 240142917#1 105490271#0 105490271#1 -1322#0 -1326#0 -1326#1 -1326#2"/>
    </vehicle>
    <vehicle id="VehicleFlowEastToWest_0.1" type="Vehicle" depart="18.75">
        <route edges="-1354 -1358 240142917#0 240142917#1 105490271#0 105490271#1 -1322#0 -1326#0 -1326#1 -1326#2"/>
    </vehicle>
    <vehicle id="VehicleFlowEastToWest_1.1" type="Vehicle" depart="18.75">
        <route edges="-1280#0 -1280#1 -1280#2 -1354 -1358 240142917#0 240142917#1 105490271#0 105490271#1 -1322#0 -1326#0 -1326#1 -1326#2"/>
    </vehicle>
    <vehicle id="VehicleFlowWestToEast.3" type="Vehicle" depart="20.00">
        <route edges="-1328#0 -1328#1 -1324 229259796#0 229259796#1 -1362 -1352 240143209 105490279#0 105490279#1 -1282#0 -1282#1"/>
    </vehicle>
    <vehicle id="VehicleFlowWestToNorth.1" type="Vehicle" depart="20.00">
        <route edges="-1328#0 -1328#1 -1324 229259796#0 229259796#1 -1362 -1352 240143209 240143210 -1358 105490284 -1370 -1366 -1290 -1288"/>
    </vehicle>
    <vehicle id="VehicleFlowWestToEast_0.3" type="Vehicle" depart="25.71">
        <route edges="229259796#0 229259796#1 -1362 -1352 240143209 105490279#0 105490279#1 -1282#0 -1282#1"/>
    </vehicle>
    <vehicle id="VehicleFlowWestToEast.4" type="Vehicle" depart="26.66">
        <route edges="-1328#0 -1328#1 -1324 229259796#0 229259796#1 -1362 -1352 240143209 105490279#0 105490279#1 -1282#0 -1282#1"/>
    </vehicle>
    <vehicle id="VehicleFlowWestToEast.5" type="Vehicle" depart="33.33">
        <route edges="-1328#0 -1328#1 -1324 229259796#0 229259796#1 -1362 -1352 240143209 105490279#0 105490279#1 -1282#0 -1282#1"/>
    </vehicle>
    <vehicle id="VehicleFlowWestToEast_0.4" type="Vehicle" depart="34.28">
        <route edges="229259796#0 229259796#1 -1362 -1352 240143209 105490279#0 105490279#1 -1282#0 -1282#1"/>
    </vehicle>
    <vehicle id="VehicleFlowEastToWest.2" type="Vehicle" depart="37.50">
        <route edges="-1274 -1354 -1358 240142917#0 240142917#1 105490271#0 105490271#1 -1322#0 -1326#0 -1326#1 -1326#2"/>
    </vehicle>
    <vehicle id="VehicleFlowEastToWest_0.2" type="Vehicle" depart="37.50">
        <route edges="-1354 -1358 240142917#0 240142917#1 105490271#0 105490271#1 -1322#0 -1326#0 -1326#1 -1326#2"/>
    </vehicle>
    <vehicle id="VehicleFlowEastToWest_1.2" type="Vehicle" depart="37.50">
        <route edges="-1280#0 -1280#1 -1280#2 -1354 -1358 240142917#0 240142917#1 105490271#0 105490271#1 -1322#0 -1326#0 -1326#1 -1326#2"/>
    </vehicle>
    <vehicle id="VehicleFlowWestToEast.6" type="Vehicle" depart="40.00">
        <route edges="-1328#0 -1328#1 -1324 229259796#0 229259796#1 -1362 -1352 240143209 105490279#0 105490279#1 -1282#0 -1282#1"/>
    </vehicle>
    <vehicle id="VehicleFlowWestToNorth.2" type="Vehicle" depart="40.00">
        <route edges="-1328#0 -1328#1 -1324 229259796#0 229259796#1 -1362 -1352 240143209 240143210 -1358 105490284 -1370 -1366 -1290 -1288"/>
    </vehicle>
    <vehicle id="VehicleFlowWestToEast_0.5" type="Vehicle" depart="42.85">
        <route edges="229259796#0 229259796#1 -1362 -1352 240143209 105490279#0 105490279#1 -1282#0 -1282#1"/>
    </vehicle>
    <vehicle id="VehicleFlowWestToEast.7" type="Vehicle" depart="46.66">
        <route edges="-1328#0 -1328#1 -1324 229259796#0 229259796#1 -1362 -1352 240143209 105490279#0 105490279#1 -1282#0 -1282#1"/>
    </vehicle>
    <vehicle id="VehicleFlowEastToNorth.1" type="Vehicle" depart="50.00">
        <route edges="-1274 -1354 -1358 105490284 -1370 -1366 -1290 -1288"/>
    </vehicle>
    <vehicle id="VehicleFlowWestToEast_0.6" type="Vehicle" depart="51.43">
        <route edges="229259796#0 229259796#1 -1362 -1352 240143209 105490279#0 105490279#1 -1282#0 -1282#1"/>
    </vehicle>
    <vehicle id="VehicleFlowWestToEast.8" type="Vehicle" depart="53.33">
        <route edges="-1328#0 -1328#1 -1324 229259796#0 229259796#1 -1362 -1352 240143209 105490279#0 105490279#1 -1282#0 -1282#1"/>
    </vehicle>
    <vehicle id="VehicleFlowSouthToEast.0" type="Vehicle" depart="55.00">
        <route edges="-1336#0 -1342 -1340#1 -1340#2 --1346 -1348#3 -1348#4 239331354 240143209 105490279#0 105490279#1 -1282#0 -1282#1"/>
    </vehicle>
    <vehicle id="VehicleFlowSouthToNorth.0" type="Vehicle" depart="55.00">
        <route edges="-1336#0 -1342 -1340#1 -1340#2 --1346 -1348#3 -1348#4 239331354 240143209 240143210 -1358 105490284 -1370 -1366 -1290 -1288"/>
    </vehicle>
    <vehicle id="VehicleFlowSouthToWest.0" type="Vehicle" depart="55.00">
        <route edges="239331354 240143209 240143210 -1358 240142917#0 240142917#1 105490271#0 105490271#1 -1322#0 -1326#0 -1326#1 -1326#2"/>
    </vehicle>
    <vehicle id="VehicleFlowEastToWest.3" type="Vehicle" depart="56.25">
        <route edges="-1274 -1354 -1358 240142917#0 240142917#1 105490271#0 105490271#1 -1322#0 -1326#0 -1326#1 -1326#2"/>
    </vehicle>
    <vehicle id="VehicleFlowEastToWest_0.3" type="Vehicle" depart="56.25">
        <route edges="-1354 -1358 240142917#0 240142917#1 105490271#0 105490271#1 -1322#0 -1326#0 -1326#1 -1326#2"/>
    </vehicle>
    <vehicle id="VehicleFlowEastToWest_1.3" type="Vehicle" depart="56.25">
        <route edges="-1280#0 -1280#1 -1280#2 -1354 -1358 240142917#0 240142917#1 105490271#0 105490271#1 -1322#0 -1326#0 -1326#1 -1326#2"/>
    </vehicle>
    <vehicle id="VehicleFlowWestToEast.9" type="Vehicle" depart="59.99">
        <route edges="-1328#0 -1328#1 -1324 229259796#0 229259796#1 -1362 -1352 240143209 105490279#0 105490279#1 -1282#0 -1282#1"/>
    </vehicle>
    <vehicle id="VehicleFlowWestToEast_0.7" type="Vehicle" depart="60.00">
        <route edges="229259796#0 229259796#1 -1362 -1352 240143209 105490279#0 105490279#1 -1282#0 -1282#1"/>
    </vehicle>
    <vehicle id="VehicleFlowNorthToEast.0" type="Vehicle" depart="60.00">
        <route edges="--1288 --1290 --1366 --1370 28925528 240142917#1 -1360 -1362 -1352 240143209 105490279#0 105490279#1 -1282#0 -1282#1"/>
    </vehicle>
    <vehicle id="VehicleFlowNorthToSouth.0" type="Vehicle" depart="60.00">
        <route edges="--1288 --1290 --1366 --1370 28925528 240142917#1 -1360 -1362 239331353 -1348#1 -1348#2 -1346 -1340#3 -1340#0 --1342 --1336#0"/>
    </vehicle>
    <vehicle id="VehicleFlowNorthToWest.0" type="Vehicle" depart="60.00">
        <route edges="--1288 --1290 --1366 --1370 28925528 240142917#1 105490271#0 105490271#1 -1322#0 -1326#0 -1326#1 -1326#2"/>
    </vehicle>
    <vehicle id="VehicleFlowWestToNorth.3" type="Vehicle" depart="60.00">
        <route edges="-1328#0 -1328#1 -1324 229259796#0 229259796#1 -1362 -1352 240143209 240143210 -1358 105490284 -1370 -1366 -1290 -1288"/>
    </vehicle>
    <vehicle id="VehicleFlowWestToSouth.1" type="Vehicle" depart="60.00">
        <route edges="-1324 229259796#0 229259796#1 -1362 239331353 -1348#1 -1348#2 -1346 -1340#3 -1340#0 --1342 --1336#0"/>
    </vehicle>
    <vehicle id="VehicleFlowWestToEast.10" type="Vehicle" depart="66.66">
        <route edges="-1328#0 -1328#1 -1324 229259796#0 229259796#1 -1362 -1352 240143209 105490279#0 105490279#1 -1282#0 -1282#1"/>
    </vehicle>
    <vehicle id="VehicleFlowWestToEast_0.8" type="Vehicle" depart="68.57">
        <route edges="229259796#0 229259796#1 -1362 -1352 240143209 105490279#0 105490279#1 -1282#0 -1282#1"/>
    </vehicle>
    <vehicle id="VehicleFlowSouthToWest.1" type="Vehicle" depart="72.90">
        <route edges="239331354 240143209 240143210 -1358 240142917#0 240142917#1 105490271#0 105490271#1 -1322#0 -1326#0 -1326#1 -1326#2"/>
    </vehicle>
    <vehicle id="VehicleFlowWestToEast.11" type="Vehicle" depart="73.33">
        <route edges="-1328#0 -1328#1 -1324 229259796#0 229259796#1 -1362 -1352 240143209 105490279#0 105490279#1 -1282#0 -1282#1"/>
    </vehicle>
    <vehicle id="VehicleFlowEastToWest.4" type="Vehicle" depart="75.00">
        <route edges="-1274 -1354 -1358 240142917#0 240142917#1 105490271#0 105490271#1 -1322#0 -1326#0 -1326#1 -1326#2"/>
    </vehicle>
    <vehicle id="VehicleFlowEastToWest_0.4" type="Vehicle" depart="75.00">
        <route edges="-1354 -1358 240142917#0 240142917#1 105490271#0 105490271#1 -1322#0 -1326#0 -1326#1 -1326#2"/>
    </vehicle>
    <vehicle id="VehicleFlowEastToWest_1.4" type="Vehicle" depart="75.00">
        <route edges="-1280#0 -1280#1 -1280#2 -1354 -1358 240142917#0 240142917#1 105490271#0 105490271#1 -1322#0 -1326#0 -1326#1 -1326#2"/>
    </vehicle>
    <vehicle id="VehicleFlowWestToEast_0.9" type="Vehicle" depart="77.14">
        <route edges="229259796#0 229259796#1 -1362 -1352 240143209 105490279#0 105490279#1 -1282#0 -1282#1"/>
    </vehicle>
    <vehicle id="VehicleFlowWestToEast.12" type="Vehicle" depart="79.99">
        <route edges="-1328#0 -1328#1 -1324 229259796#0 229259796#1 -1362 -1352 240143209 105490279#0 105490279#1 -1282#0 -1282#1"/>
    </vehicle>
    <vehicle id="VehicleFlowWestToNorth.4" type="Vehicle" depart="80.00">
        <route edges="-1328#0 -1328#1 -1324 229259796#0 229259796#1 -1362 -1352 240143209 240143210 -1358 105490284 -1370 -1366 -1290 -1288"/>
    </vehicle>
    <vehicle id="VehicleFlowNorthToWest.1" type="Vehicle" depart="81.19">
        <route edges="--1288 --1290 --1366 --1370 28925528 240142917#1 105490271#0 105490271#1 -1322#0 -1326#0 -1326#1 -1326#2"/>
    </vehicle>
    <vehicle id="VehicleFlowSouthToNorth.1" type="Vehicle" depart="82.12">
        <route edges="-1336#0 -1342 -1340#1 -1340#2 --1346 -1348#3 -1348#4 239331354 240143209 240143210 -1358 105490284 -1370 -1366 -1290 -1288"/>
    </vehicle>
    <vehicle id="VehicleFlowSouthToEast.1" type="Vehicle" depart="84.83">
        <route edges="-1336#0 -1342 -1340#1 -1340#2 --1346 -1348#3 -1348#4 239331354 240143209 105490279#0 105490279#1 -1282#0 -1282#1"/>
    </vehicle>
    <vehicle id="VehicleFlowWestToEast_0.10" type="Vehicle" depart="85.71">
        <route edges="229259796#0 229259796#1 -1362 -1352 240143209 105490279#0 105490279#1 -1282#0 -1282#1"/>
    </vehicle>
    <vehicle id="VehicleFlowWestToEast.13" type="Vehicle" depart="86.66">
        <route edges="-1328#0 -1328#1 -1324 229259796#0 229259796#1 -1362 -1352 240143209 105490279#0 105490279#1 -1282#0 -1282#1"/>
    </vehicle>
    <vehicle id="VehicleFlowSouthToWest.2" type="Vehicle" depart="90.80">
        <route edges="239331354 240143209 240143210 -1358 240142917#0 240142917#1 105490271#0 105490271#1 -1322#0 -1326#0 -1326#1 -1326#2"/>
    </vehicle>
    <vehicle id="VehicleFlowWestToEast.14" type="Vehicle" depart="93.32">
        <route edges="-1328#0 -1328#1 -1324 229259796#0 229259796#1 -1362 -1352 240143209 105490279#0 105490279#1 -1282#0 -1282#1"/>
    </vehicle>
    <vehicle id="VehicleFlowEastToWest.5" type="Vehicle" depart="93.75">
        <route edges="-1274 -1354 -1358 240142917#0 240142917#1 105490271#0 105490271#1 -1322#0 -1326#0 -1326#1 -1326#2"/>
    </vehicle>
    <vehicle id="VehicleFlowEastToWest_0.5" type="Vehicle" depart="93.75">
        <route edges="-1354 -1358 240142917#0 240142917#1 105490271#0 105490271#1 -1322#0 -1326#0 -1326#1 -1326#2"/>
    </vehicle>
    <vehicle id="VehicleFlowEastToWest_1.5" type="Vehicle" depart="93.75">
        <route edges="-1280#0 -1280#1 -1280#2 -1354 -1358 240142917#0 240142917#1 105490271#0 105490271#1 -1322#0 -1326#0 -1326#1 -1326#2"/>
    </vehicle>
    <vehicle id="VehicleFlowNorthToSouth.1" type="Vehicle" depart="94.23">
        <route edges="--1288 --1290 --1366 --1370 28925528 240142917#1 -1360 -1362 239331353 -1348#1 -1348#2 -1346 -1340#3 -1340#0 --1342 --1336#0"/>
    </vehicle>
    <vehicle id="VehicleFlowWestToEast_0.11" type="Vehicle" depart="94.28">
        <route edges="229259796#0 229259796#1 -1362 -1352 240143209 105490279#0 105490279#1 -1282#0 -1282#1"/>
    </vehicle>
    <vehicle id="VehicleFlowNorthToEast.1" type="Vehicle" depart="95.60">
        <route edges="--1288 --1290 --1366 --1370 28925528 240142917#1 -1360 -1362 -1352 240143209 105490279#0 105490279#1 -1282#0 -1282#1"/>
    </vehicle>
    <vehicle id="VehicleFlowWestToEast.15" type="Vehicle" depart="99.99">
        <route edges="-1328#0 -1328#1 -1324 229259796#0 229259796#1 -1362 -1352 240143209 105490279#0 105490279#1 -1282#0 -1282#1"/>
    </vehicle>
    <vehicle id="VehicleFlowEastToNorth.2" type="Vehicle" depart="100.00">
        <route edges="-1274 -1354 -1358 105490284 -1370 -1366 -1290 -1288"/>
    </vehicle>
    <vehicle id="VehicleFlowEastToSouth.1" type="Vehicle" depart="100.00">
        <route edges="-1274 -1354 -1358 240142917#0 240142917#1 -1360 -1362 239331353 -1348#1 -1348#2 -1346 -1340#3 -1340#0 --1342 --1336#0"/>
    </vehicle>
    <vehicle id="VehicleFlowWestToNorth.5" type="Vehicle" depart="100.00">
        <route edges="-1328#0 -1328#1 -1324 229259796#0 229259796#1 -1362 -1352 240143209 240143210 -1358 105490284 -1370 -1366 -1290 -1288"/>
    </vehicle>
    <vehicle id="VehicleFlowNorthToWest.2" type="Vehicle" depart="102.38">
        <route edges="--1288 --1290 --1366 --1370 28925528 240142917#1 105490271#0 105490271#1 -1322#0 -1326#0 -1326#1 -1326#2"/>
    </vehicle>
    <vehicle id="VehicleFlowWestToEast_0.12" type="Vehicle" depart="102.85">
        <route edges="229259796#0 229259796#1 -1362 -1352 240143209 105490279#0 105490279#1 -1282#0 -1282#1"/>
    </vehicle>
    <vehicle id="VehicleFlowWestToEast.16" type="Vehicle" depart="106.66">
        <route edges="-1328#0 -1328#1 -1324 229259796#0 229259796#1 -1362 -1352 240143209 105490279#0 105490279#1 -1282#0 -1282#1"/>
    </vehicle>
    <vehicle id="VehicleFlowSouthToWest.3" type="Vehicle" depart="108.70">
        <route edges="239331354 240143209 240143210 -1358 240142917#0 240142917#1 105490271#0 105490271#1 -1322#0 -1326#0 -1326#1 -1326#2"/>
    </vehicle>
    <vehicle id="VehicleFlowSouthToNorth.2" type="Vehicle" depart="109.24">
        <route edges="-1336#0 -1342 -1340#1 -1340#2 --1346 -1348#3 -1348#4 239331354 240143209 240143210 -1358 105490284 -1370 -1366 -1290 -1288"/>
    </vehicle>
    <vehicle id="VehicleFlowWestToEast_0.13" type="Vehicle" depart="111.42">
        <route edges="229259796#0 229259796#1 -1362 -1352 240143209 105490279#0 105490279#1 -1282#0 -1282#1"/>
    </vehicle>
    <vehicle id="VehicleFlowEastToWest.6" type="Vehicle" depart="112.50">
        <route edges="-1274 -1354 -1358 240142917#0 240142917#1 105490271#0 105490271#1 -1322#0 -1326#0 -1326#1 -1326#2"/>
    </vehicle>
    <vehicle id="VehicleFlowEastToWest_0.6" type="Vehicle" depart="112.50">
        <route edges="-1354 -1358 240142917#0 240142917#1 105490271#0 105490271#1 -1322#0 -1326#0 -1326#1 -1326#2"/>
    </vehicle>
    <vehicle id="VehicleFlowEastToWest_1.6" type="Vehicle" depart="112.50">
        <route edges="-1280#0 -1280#1 -1280#2 -1354 -1358 240142917#0 240142917#1 105490271#0 105490271#1 -1322#0 -1326#0 -1326#1 -1326#2"/>
    </vehicle>
    <vehicle id="VehicleFlowWestToEast.17" type="Vehicle" depart="113.32">
        <route edges="-1328#0 -1328#1 -1324 229259796#0 229259796#1 -1362 -1352 240143209 105490279#0 105490279#1 -1282#0 -1282#1"/>
    </vehicle>
    <vehicle id="VehicleFlowSouthToEast.2" type="Vehicle" depart="114.67">
        <route edges="-1336#0 -1342 -1340#1 -1340#2 --1346 -1348#3 -1348#4 239331354 240143209 105490279#0 105490279#1 -1282#0 -1282#1"/>
    </vehicle>
    <vehicle id="VehicleFlowWestToEast.18" type="Vehicle" depart="119.99">
        <route edges="-1328#0 -1328#1 -1324 229259796#0 229259796#1 -1362 -1352 240143209 105490279#0 105490279#1 -1282#0 -1282#1"/>
    </vehicle>
    <vehicle id="VehicleFlowWestToEast_0.14" type="Vehicle" depart="119.99">
        <route edges="229259796#0 229259796#1 -1362 -1352 240143209 105490279#0 105490279#1 -1282#0 -1282#1"/>
    </vehicle>
    <vehicle id="VehicleFlowWestToNorth.6" type="Vehicle" depart="120.00">
        <route edges="-1328#0 -1328#1 -1324 229259796#0 229259796#1 -1362 -1352 240143209 240143210 -1358 105490284 -1370 -1366 -1290 -1288"/>
    </vehicle>
    <vehicle id="VehicleFlowWestToSouth.2" type="Vehicle" depart="120.00">
        <route edges="-1324 229259796#0 229259796#1 -1362 239331353 -1348#1 -1348#2 -1346 -1340#3 -1340#0 --1342 --1336#0"/>
    </vehicle>
    <vehicle id="VehicleFlowNorthToWest.3" type="Vehicle" depart="123.57">
        <route edges="--1288 --1290 --1366 --1370 28925528 240142917#1 105490271#0 105490271#1 -1322#0 -1326#0 -1326#1 -1326#2"/>
    </vehicle>
    <vehicle id="VehicleFlowSouthToWest.4" type="Vehicle" depart="126.60">
        <route edges="239331354 240143209 240143210 -1358 240142917#0 240142917#1 105490271#0 105490271#1 -1322#0 -1326#0 -1326#1 -1326#2"/>
    </vehicle>
    <vehicle id="VehicleFlowWestToEast.19" type="Vehicle" depart="126.65">
        <route edges="-1328#0 -1328#1 -1324 229259796#0 229259796#1 -1362 -1352 240143209 105490279#0 105490279#1 -1282#0 -1282#1"/>
    </vehicle>
    <vehicle id="VehicleFlowNorthToSouth.2" type="Vehicle" depart="128.46">
        <route edges="--1288 --1290 --1366 --1370 28925528 240142917#1 -1360 -1362 239331353 -1348#1 -1348#2 -1346 -1340#3 -1340#0 --1342 --1336#0"/>
    </vehicle>
    <vehicle id="VehicleFlowWestToEast_0.15" type="Vehicle" depart="128.56">
        <route edges="229259796#0 229259796#1 -1362 -1352 240143209 105490279#0 105490279#1 -1282#0 -1282#1"/>
    </vehicle>
    <vehicle id="VehicleFlowNorthToEast.2" type="Vehicle" depart="131.20">
        <route edges="--1288 --1290 --1366 --1370 28925528 240142917#1 -1360 -1362 -1352 240143209 105490279#0 105490279#1 -1282#0 -1282#1"/>
    </vehicle>
    <vehicle id="VehicleFlowEastToWest.7" type="Vehicle" depart="131.25">
        <route edges="-1274 -1354 -1358 240142917#0 240142917#1 105490271#0 105490271#1 -1322#0 -1326#0 -1326#1 -1326#2"/>
    </vehicle>
    <vehicle id="VehicleFlowEastToWest_0.7" type="Vehicle" depart="131.25">
        <route edges="-1354 -1358 240142917#0 240142917#1 105490271#0 105490271#1 -1322#0 -1326#0 -1326#1 -1326#2"/>
    </vehicle>
    <vehicle id="VehicleFlowEastToWest_1.7" type="Vehicle" depart="131.25">
        <route edges="-1280#0 -1280#1 -1280#2 -1354 -1358 240142917#0 240142917#1 105490271#0 105490271#1 -1322#0 -1326#0 -1326#1 -1326#2"/>
    </vehicle>
    <vehicle id="VehicleFlowWestToEast.20" type="Vehicle" depart="133.32">
        <route edges="-1328#0 -1328#1 -1324 229259796#0 229259796#1 -1362 -1352 240143209 105490279#0 105490279#1 -1282#0 -1282#1"/>
    </vehicle>
    <vehicle id="VehicleFlowSouthToNorth.3" type="Vehicle" depart="136.36">
        <route edges="-1336#0 -1342 -1340#1 -1340#2 --1346 -1348#3 -1348#4 239331354 240143209 240143210 -1358 105490284 -1370 -1366 -1290 -1288"/>
    </vehicle>
    <vehicle id="VehicleFlowWestToEast_0.16" type="Vehicle" depart="137.14">
        <route edges="229259796#0 229259796#1 -1362 -1352 240143209 105490279#0 105490279#1 -1282#0 -1282#1"/>
    </vehicle>
    <vehicle id="VehicleFlowWestToEast.21" type="Vehicle" depart="139.99">
        <route edges="-1328#0 -1328#1 -1324 229259796#0 229259796#1 -1362 -1352 240143209 105490279#0 105490279#1 -1282#0 -1282#1"/>
    </vehicle>
    <vehicle id="VehicleFlowWestToNorth.7" type="Vehicle" depart="140.00">
        <route edges="-1328#0 -1328#1 -1324 229259796#0 229259796#1 -1362 -1352 240143209 240143210 -1358 105490284 -1370 -1366 -1290 -1288"/>
    </vehicle>
    <vehicle id="VehicleFlowSouthToEast.3" type="Vehicle" depart="144.50">
        <route edges="-1336#0 -1342 -1340#1 -1340#2 --1346 -1348#3 -1348#4 239331354 240143209 105490279#0 105490279#1 -1282#0 -1282#1"/>
    </vehicle>
    <vehicle id="VehicleFlowSouthToWest.5" type="Vehicle" depart="144.50">
        <route edges="239331354 240143209 240143210 -1358 240142917#0 240142917#1 105490271#0 105490271#1 -1322#0 -1326#0 -1326#1 -1326#2"/>
    </vehicle>
    <vehicle id="VehicleFlowNorthToWest.4" type="Vehicle" depart="144.76">
        <route edges="--1288 --1290 --1366 --1370 28925528 240142917#1 105490271#0 105490271#1 -1322#0 -1326#0 -1326#1 -1326#2"/>
    </vehicle>
    <vehicle id="VehicleFlowWestToEast_0.17" type="Vehicle" depart="145.71">
        <route edges="229259796#0 229259796#1 -1362 -1352 240143209 105490279#0 105490279#1 -1282#0 -1282#1"/>
    </vehicle>
    <vehicle id="VehicleFlowWestToEast.22" type="Vehicle" depart="146.65">
        <route edges="-1328#0 -1328#1 -1324 229259796#0 229259796#1 -1362 -1352 240143209 105490279#0 105490279#1 -1282#0 -1282#1"/>
    </vehicle>
    <vehicle id="VehicleFlowEastToNorth.3" type="Vehicle" depart="150.00">
        <route edges="-1274 -1354 -1358 105490284 -1370 -1366 -1290 -1288"/>
    </vehicle>
    <vehicle id="VehicleFlowEastToWest.8" type="Vehicle" depart="150.00">
        <route edges="-1274 -1354 -1358 240142917#0 240142917#1 105490271#0 105490271#1 -1322#0 -1326#0 -1326#1 -1326#2"/>
    </vehicle>
    <vehicle id="VehicleFlowEastToWest_0.8" type="Vehicle" depart="150.00">
        <route edges="-1354 -1358 240142917#0 240142917#1 105490271#0 105490271#1 -1322#0 -1326#0 -1326#1 -1326#2"/>
    </vehicle>
    <vehicle id="VehicleFlowEastToWest_1.8" type="Vehicle" depart="150.00">
        <route edges="-1280#0 -1280#1 -1280#2 -1354 -1358 240142917#0 240142917#1 105490271#0 105490271#1 -1322#0 -1326#0 -1326#1 -1326#2"/>
    </vehicle>
    <vehicle id="VehicleFlowWestToEast.23" type="Vehicle" depart="153.32">
        <route edges="-1328#0 -1328#1 -1324 229259796#0 229259796#1 -1362 -1352 240143209 105490279#0 105490279#1 -1282#0 -1282#1"/>
    </vehicle>
    <vehicle id="VehicleFlowWestToEast_0.18" type="Vehicle" depart="154.28">
        <route edges="229259796#0 229259796#1 -1362 -1352 240143209 105490279#0 105490279#1 -1282#0 -1282#1"/>
    </vehicle>
    <vehicle id="VehicleFlowWestToEast.24" type="Vehicle" depart="159.98">
        <route edges="-1328#0 -1328#1 -1324 229259796#0 229259796#1 -1362 -1352 240143209 105490279#0 105490279#1 -1282#0 -1282#1"/>
    </vehicle>
    <vehicle id="VehicleFlowWestToNorth.8" type="Vehicle" depart="160.00">
        <route edges="-1328#0 -1328#1 -1324 229259796#0 229259796#1 -1362 -1352 240143209 240143210 -1358 105490284 -1370 -1366 -1290 -1288"/>
    </vehicle>
    <vehicle id="VehicleFlowSouthToWest.6" type="Vehicle" depart="162.40">
        <route edges="239331354 240143209 240143210 -1358 240142917#0 240142917#1 105490271#0 105490271#1 -1322#0 -1326#0 -1326#1 -1326#2"/>
    </vehicle>
    <vehicle id="VehicleFlowNorthToSouth.3" type="Vehicle" depart="162.69">
        <route edges="--1288 --1290 --1366 --1370 28925528 240142917#1 -1360 -1362 239331353 -1348#1 -1348#2 -1346 -1340#3 -1340#0 --1342 --1336#0"/>
    </vehicle>
    <vehicle id="VehicleFlowWestToEast_0.19" type="Vehicle" depart="162.85">
        <route edges="229259796#0 229259796#1 -1362 -1352 240143209 105490279#0 105490279#1 -1282#0 -1282#1"/>
    </vehicle>
    <vehicle id="VehicleFlowSouthToNorth.4" type="Vehicle" depart="163.48">
        <route edges="-1336#0 -1342 -1340#1 -1340#2 --1346 -1348#3 -1348#4 239331354 240143209 240143210 -1358 105490284 -1370 -1366 -1290 -1288"/>
    </vehicle>
    <vehicle id="VehicleFlowNorthToWest.5" type="Vehicle" depart="165.95">
        <route edges="--1288 --1290 --1366 --1370 28925528 240142917#1 105490271#0 105490271#1 -1322#0 -1326#0 -1326#1 -1326#2"/>
    </vehicle>
    <vehicle id="VehicleFlowWestToEast.25" type="Vehicle" depart="166.65">
        <route edges="-1328#0 -1328#1 -1324 229259796#0 229259796#1 -1362 -1352 240143209 105490279#0 105490279#1 -1282#0 -1282#1"/>
    </vehicle>
    <vehicle id="VehicleFlowNorthToEast.3" type="Vehicle" depart="166.80">
        <route edges="--1288 --1290 --1366 --1370 28925528 240142917#1 -1360 -1362 -1352 240143209 105490279#0 105490279#1 -1282#0 -1282#1"/>
    </vehicle>
    <vehicle id="VehicleFlowEastToWest.9" type="Vehicle" depart="168.75">
        <route edges="-1274 -1354 -1358 240142917#0 240142917#1 105490271#0 105490271#1 -1322#0 -1326#0 -1326#1 -1326#2"/>
    </vehicle>
    <vehicle id="VehicleFlowEastToWest_0.9" type="Vehicle" depart="168.75">
        <route edges="-1354 -1358 240142917#0 240142917#1 105490271#0 105490271#1 -1322#0 -1326#0 -1326#1 -1326#2"/>
    </vehicle>
    <vehicle id="VehicleFlowEastToWest_1.9" type="Vehicle" depart="168.75">
        <route edges="-1280#0 -1280#1 -1280#2 -1354 -1358 240142917#0 240142917#1 105490271#0 105490271#1 -1322#0 -1326#0 -1326#1 -1326#2"/>
    </vehicle>
    <vehicle id="VehicleFlowWestToEast_0.20" type="Vehicle" depart="171.42">
        <route edges="229259796#0 229259796#1 -1362 -1352 240143209 105490279#0 105490279#1 -1282#0 -1282#1"/>
    </vehicle>
    <vehicle id="VehicleFlowWestToEast.26" type="Vehicle" depart="173.32">
        <route edges="-1328#0 -1328#1 -1324 229259796#0 229259796#1 -1362 -1352 240143209 105490279#0 105490279#1 -1282#0 -1282#1"/>
    </vehicle>
    <vehicle id="VehicleFlowSouthToEast.4" type="Vehicle" depart="174.33">
        <route edges="-1336#0 -1342 -1340#1 -1340#2 --1346 -1348#3 -1348#4 239331354 240143209 105490279#0 105490279#1 -1282#0 -1282#1"/>
    </vehicle>
    <vehicle id="VehicleFlowWestToEast.27" type="Vehicle" depart="179.98">
        <route edges="-1328#0 -1328#1 -1324 229259796#0 229259796#1 -1362 -1352 240143209 105490279#0 105490279#1 -1282#0 -1282#1"/>
    </vehicle>
    <vehicle id="VehicleFlowWestToEast_0.21" type="Vehicle" depart="179.99">
        <route edges="229259796#0 229259796#1 -1362 -1352 240143209 105490279#0 105490279#1 -1282#0 -1282#1"/>
    </vehicle>
    <vehicle id="VehicleFlowWestToNorth.9" type="Vehicle" depart="180.00">
        <route edges="-1328#0 -1328#1 -1324 229259796#0 229259796#1 -1362 -1352 240143209 240143210 -1358 105490284 -1370 -1366 -1290 -1288"/>
    </vehicle>
    <vehicle id="VehicleFlowWestToSouth.3" type="Vehicle" depart="180.00">
        <route edges="-1324 229259796#0 229259796#1 -1362 239331353 -1348#1 -1348#2 -1346 -1340#3 -1340#0 --1342 --1336#0"/>
    </vehicle>
    <vehicle id="VehicleFlowSouthToWest.7" type="Vehicle" depart="180.30">
        <route edges="239331354 240143209 240143210 -1358 240142917#0 240142917#1 105490271#0 105490271#1 -1322#0 -1326#0 -1326#1 -1326#2"/>
    </vehicle>
    <vehicle id="VehicleFlowWestToEast.28" type="Vehicle" depart="186.65">
        <route edges="-1328#0 -1328#1 -1324 229259796#0 229259796#1 -1362 -1352 240143209 105490279#0 105490279#1 -1282#0 -1282#1"/>