<?xml version="1.0" encoding="UTF-8"?>

<!-- generated on Wed Feb  5 14:29:53 2014 by SUMO netconvert Version 0.19.0
<?xml version="1.0" encoding="UTF-8"?>

<configuration xmlns:xsi="http://www.w3.org/2001/XMLSchema-instance" xsi:noNamespaceSchemaLocation="http://sumo-sim.org/xsd/netconvertConfiguration.xsd">

    <input>
        <osm-files value="RondPoint.osm"/>
    </input>

    <output>
        <output-file value="net.net.xml"/>
    </output>

    <projection>
        <proj.utm value="true"/>
    </projection>

</configuration>
-->

<net version="0.13" xmlns:xsi="http://www.w3.org/2001/XMLSchema-instance" xsi:noNamespaceSchemaLocation="http://sumo-sim.org/xsd/net_file.xsd">

    <location netOffset="-460843.46,-5401488.73" convBoundary="0.00,0.00,725.37,311.13" origBoundary="2.467126,48.765217,2.477012,48.767998" projParameter="+proj=utm +zone=31 +ellps=WGS84 +datum=WGS84 +units=m +no_defs"/>

    <edge id=":1214943442_0" function="internal">
        <lane id=":1214943442_0_0" index="0" allow="delivery" speed="13.89" length="13.63" shape="327.85,185.01 327.08,181.85 325.15,179.78 322.04,178.81 317.76,178.94"/>
    </edge>
    <edge id=":1214943442_1" function="internal">
        <lane id=":1214943442_1_0" index="0" speed="13.89" length="15.66" shape="327.85,185.01 327.58,180.00 327.58,176.52 328.18,173.12 329.70,168.37"/>
        <lane id=":1214943442_1_1" index="1" speed="13.89" length="15.66" shape="331.15,184.85 330.89,180.22 330.87,177.00 331.41,173.86 332.81,169.47"/>
        <lane id=":1214943442_1_2" index="2" speed="13.89" length="15.66" shape="334.44,184.69 334.20,180.44 334.17,177.48 334.65,174.60 335.92,170.57"/>
    </edge>
    <edge id=":1214943442_4" function="internal">
        <lane id=":1214943442_4_0" index="0" allow="delivery" speed="13.89" length="7.25" shape="334.44,184.69 334.49,180.02 335.00,177.50"/>
    </edge>
    <edge id=":1214943442_15" function="internal">
        <lane id=":1214943442_15_0" index="0" speed="13.89" length="5.13" shape="335.00,177.50 335.16,176.71 336.45,174.76 338.36,174.18"/>
    </edge>
    <edge id=":1214943442_5" function="internal">
        <lane id=":1214943442_5_0" index="0" allow="delivery" speed="13.89" length="20.52" shape="338.20,177.47 333.60,177.51 327.96,177.86 322.34,178.39 317.76,178.94"/>
    </edge>
    <edge id=":1214943442_6" function="internal">
        <lane id=":1214943442_6_0" index="0" speed="13.89" length="4.40" shape="338.20,177.47 336.32,176.96 335.31,175.64 335.26,174.86"/>
    </edge>
    <edge id=":1214943442_7" function="internal">
        <lane id=":1214943442_7_0" index="0" allow="delivery" speed="13.89" length="2.40" shape="338.20,177.47 337.01,176.59 336.64,175.75"/>
    </edge>
    <edge id=":1214943442_16" function="internal">
        <lane id=":1214943442_16_0" index="0" speed="13.89" length="4.39" shape="335.26,174.86 335.18,173.51 335.92,170.57"/>
    </edge>
    <edge id=":1214943442_17" function="internal">
        <lane id=":1214943442_17_0" index="0" speed="13.89" length="2.40" shape="336.64,175.75 337.09,174.95 338.36,174.18"/>
    </edge>
    <edge id=":1214943442_8" function="internal">
        <lane id=":1214943442_8_0" index="0" speed="13.89" length="15.09" shape="317.30,175.67 321.95,174.68 325.57,173.13 328.15,171.02 329.70,168.37"/>
    </edge>
    <edge id=":1214943442_9" function="internal">
        <lane id=":1214943442_9_0" index="0" allow="delivery" speed="13.89" length="21.12" shape="317.30,175.67 321.98,175.12 327.81,174.58 333.66,174.22 338.36,174.18"/>
    </edge>
    <edge id=":1214943442_10" function="internal">
        <lane id=":1214943442_10_0" index="0" allow="delivery" speed="13.89" length="2.41" shape="317.30,175.67 318.64,176.32 319.16,177.08"/>
    </edge>
    <edge id=":1214943442_18" function="internal">
        <lane id=":1214943442_18_0" index="0" speed="13.89" length="2.41" shape="319.16,177.08 318.87,177.95 317.76,178.94"/>
    </edge>
    <edge id=":1214943442_11" function="internal">
        <lane id=":1214943442_11_0" index="0" allow="delivery" speed="13.89" length="9.02" shape="319.27,182.39 321.69,180.45 322.24,179.23 320.93,178.73 317.76,178.94"/>
    </edge>
    <edge id=":1214943442_12" function="internal">
        <lane id=":1214943442_12_0" index="0" speed="13.89" length="20.19" shape="319.27,182.39 324.21,179.38 327.77,177.25 330.47,174.46 332.81,169.47"/>
        <lane id=":1214943442_12_1" index="1" speed="13.89" length="20.19" shape="321.43,184.91 326.69,181.64 330.50,179.22 333.39,176.07 335.92,170.57"/>
    </edge>
    <edge id=":1214943442_14" function="internal">
        <lane id=":1214943442_14_0" index="0" allow="delivery" speed="13.89" length="20.33" shape="321.43,184.91 326.85,180.82 331.11,177.34 334.77,174.97 338.36,174.18"/>
    </edge>
    <edge id=":1214943548_0" function="internal">
        <lane id=":1214943548_0_0" index="0" speed="18.06" length="8.65" shape="353.86,145.86 355.10,147.63 356.41,148.96 357.79,149.84 359.24,150.26"/>
        <lane id=":1214943548_0_1" index="1" speed="18.06" length="8.65" shape="351.03,147.56 352.73,149.94 354.59,151.73 356.61,152.93 358.80,153.53"/>
    </edge>
    <edge id=":1214943548_2" function="internal">
        <lane id=":1214943548_2_0" index="0" speed="13.89" length="8.68" shape="349.39,151.59 359.24,150.26"/>
        <lane id=":1214943548_2_1" index="1" speed="13.89" length="8.68" shape="350.21,154.79 358.80,153.53"/>
        <lane id=":1214943548_2_2" index="2" speed="13.89" length="8.68" shape="351.03,157.99 358.36,156.80"/>
    </edge>
    <edge id=":1519739620_0" function="internal">
        <lane id=":1519739620_0_0" index="0" allow="delivery" speed="5.56" length="4.82" shape="725.04,124.13 726.42,124.70 726.99,125.42 726.75,126.31 725.70,127.37"/>
    </edge>
    <edge id=":2479049221_0" function="internal">
        <lane id=":2479049221_0_0" index="0" speed="9.72" length="13.58" shape="401.46,176.07 395.87,175.75 391.92,176.01 389.61,176.85 388.93,178.26"/>
    </edge>
    <edge id=":2479049221_1" function="internal">
        <lane id=":2479049221_1_0" index="0" allow="delivery" speed="9.72" length="24.07" shape="401.46,176.07 396.30,175.66 389.44,175.26 382.58,175.00 377.42,175.05"/>
    </edge>
    <edge id=":2479049221_2" function="internal">
        <lane id=":2479049221_2_0" index="0" allow="delivery" speed="5.56" length="2.40" shape="401.46,176.07 400.30,175.13 399.97,174.28"/>
    </edge>
    <edge id=":2479049221_16" function="internal">
        <lane id=":2479049221_16_0" index="0" speed="5.56" length="2.40" shape="399.97,174.28 400.46,173.50 401.77,172.79"/>
    </edge>
    <edge id=":2479049221_3" function="internal">
        <lane id=":2479049221_3_0" index="0" allow="delivery" speed="9.72" length="6.72" shape="400.77,168.59 399.29,170.25 398.97,171.50 399.80,172.35 401.77,172.79"/>
    </edge>
    <edge id=":2479049221_4" function="internal">
        <lane id=":2479049221_4_0" index="0" speed="13.89" length="18.84" shape="400.77,168.59 395.62,173.20 391.93,176.35 389.70,178.04 388.93,178.26"/>
        <lane id=":2479049221_4_1" index="1" speed="13.89" length="18.84" shape="399.18,165.57 393.24,171.02 389.00,174.99 386.47,177.49 385.64,178.53"/>
        <lane id=":2479049221_4_2" index="2" speed="13.89" length="18.84" shape="397.59,162.55 390.85,168.83 386.07,173.63 383.23,176.95 382.35,178.80"/>
    </edge>
    <edge id=":2479049221_7" function="internal">
        <lane id=":2479049221_7_0" index="0" allow="delivery" speed="13.89" length="24.48" shape="396.00,159.54 390.02,165.35 385.22,170.22 381.17,173.63 377.42,175.05"/>
    </edge>
    <edge id=":2479049221_8" function="internal">
        <lane id=":2479049221_8_0" index="0" allow="delivery" speed="9.72" length="20.21" shape="384.45,163.89 387.19,167.33 390.98,169.95 395.84,171.78 401.77,172.79"/>
    </edge>
    <edge id=":2479049221_9" function="internal">
        <lane id=":2479049221_9_0" index="0" speed="13.89" length="14.49" shape="384.45,163.89 386.65,167.84 387.86,170.71 388.50,173.77 388.93,178.26"/>
        <lane id=":2479049221_9_1" index="1" speed="13.89" length="14.49" shape="381.31,164.97 383.38,168.70 384.57,171.41 385.21,174.29 385.64,178.53"/>
        <lane id=":2479049221_9_2" index="2" speed="13.89" length="14.49" shape="378.04,166.09 380.40,169.34 381.56,171.90 382.03,174.73 382.35,178.80"/>
    </edge>
    <edge id=":2479049221_12" function="internal">
        <lane id=":2479049221_12_0" index="0" allow="delivery" speed="13.89" length="6.46" shape="378.04,166.09 380.54,169.82 381.05,171.72"/>
    </edge>
    <edge id=":2479049221_17" function="internal">
        <lane id=":2479049221_17_0" index="0" speed="13.89" length="5.81" shape="381.05,171.72 381.27,172.56 380.23,174.30 377.42,175.05"/>
    </edge>
    <edge id=":2479049221_13" function="internal">
        <lane id=":2479049221_13_0" index="0" allow="delivery" speed="9.72" length="24.61" shape="377.19,171.76 382.44,171.71 389.48,171.97 396.53,172.38 401.77,172.79"/>
    </edge>
    <edge id=":2479049221_14" function="internal">
        <lane id=":2479049221_14_0" index="0" speed="13.89" length="4.45" shape="377.19,171.76 379.22,172.08 380.76,173.36 380.93,173.72"/>
    </edge>
    <edge id=":2479049221_15" function="internal">
        <lane id=":2479049221_15_0" index="0" allow="delivery" speed="13.89" length="2.41" shape="377.19,171.76 378.48,172.50 378.95,173.29"/>
    </edge>
    <edge id=":2479049221_18" function="internal">
        <lane id=":2479049221_18_0" index="0" speed="13.89" length="5.32" shape="380.93,173.72 381.80,175.60 382.35,178.80"/>
    </edge>
    <edge id=":2479049221_19" function="internal">
        <lane id=":2479049221_19_0" index="0" speed="13.89" length="2.41" shape="378.95,173.29 378.60,174.14 377.42,175.05"/>
    </edge>
    <edge id=":2479387657_0" function="internal">
        <lane id=":2479387657_0_0" index="0" speed="13.89" length="5.95" shape="334.65,200.48 333.65,199.73 332.59,199.39 331.49,199.48 330.35,199.98"/>
        <lane id=":2479387657_0_1" index="1" speed="13.89" length="5.95" shape="334.65,200.48 332.63,198.66 330.95,197.50 329.62,197.00 328.64,197.16"/>
    </edge>
    <edge id=":2479387657_2" function="internal">
        <lane id=":2479387657_2_0" index="0" speed="13.89" length="6.81" shape="334.65,200.48 330.26,193.13"/>
        <lane id=":2479387657_2_1" index="1" speed="13.89" length="6.81" shape="336.96,198.12 333.45,192.28"/>
        <lane id=":2479387657_2_2" index="2" speed="13.89" length="6.81" shape="339.27,195.76 336.64,191.44"/>
    </edge>
    <edge id=":431399420_0" function="internal">
        <lane id=":431399420_0_0" index="0" speed="18.06" length="5.52" shape="336.08,159.18 336.92,157.97 337.29,156.71 337.21,155.42 336.68,154.08"/>
    </edge>
    <edge id=":431399420_1" function="internal">
        <lane id=":431399420_1_0" index="0" speed="13.89" length="5.66" shape="336.08,159.18 340.96,155.04"/>
        <lane id=":431399420_1_1" index="1" speed="13.89" length="5.66" shape="338.55,161.37 342.88,157.73"/>
        <lane id=":431399420_1_2" index="2" speed="13.89" length="5.66" shape="341.02,163.56 344.79,160.41"/>
    </edge>
    <edge id=":431399475_0" function="internal">
        <lane id=":431399475_0_0" index="0" speed="13.89" length="9.03" shape="358.92,216.40 357.69,214.53 356.34,213.09 354.88,212.07 353.31,211.47"/>
        <lane id=":431399475_0_1" index="1" speed="13.89" length="9.03" shape="361.79,214.77 360.16,212.33 358.33,210.44 356.30,209.08 354.07,208.26"/>
    </edge>
    <edge id=":431399475_2" function="internal">
        <lane id=":431399475_2_0" index="0" speed="13.89" length="9.01" shape="363.62,210.82 360.57,211.51 358.45,211.96 356.33,212.01 353.31,211.47"/>
        <lane id=":431399475_2_1" index="1" speed="13.89" length="9.01" shape="363.00,207.60 354.07,208.26"/>
        <lane id=":431399475_2_2" index="2" speed="13.89" length="9.01" shape="362.38,204.39 354.82,205.05"/>
    </edge>
    <edge id=":431399476_0" function="internal">
        <lane id=":431399476_0_0" index="0" speed="13.89" length="3.96" shape="379.40,206.30 378.58,210.17"/>
    </edge>
    <edge id=":431399476_1" function="internal">
        <lane id=":431399476_1_0" index="0" speed="13.89" length="2.41" shape="376.64,204.49 374.80,207.57"/>
        <lane id=":431399476_1_1" index="1" speed="13.89" length="2.41" shape="373.88,202.68 373.81,204.43"/>
        <lane id=":431399476_1_2" index="2" speed="13.89" length="2.41" shape="373.88,202.68 372.50,201.40"/>
    </edge>
    <edge id=":431399479_0" function="internal">
        <lane id=":431399479_0_0" index="0" speed="13.89" length="6.48" shape="370.85,152.94 372.10,153.21 373.27,153.00 374.35,152.31 375.35,151.14"/>
        <lane id=":431399479_0_1" index="1" speed="13.89" length="6.48" shape="370.85,152.94 373.46,153.78 375.53,154.08 377.07,153.82 378.08,153.00"/>
    </edge>
    <edge id=":431399479_2" function="internal">
        <lane id=":431399479_2_0" index="0" speed="13.89" length="8.40" shape="370.85,152.94 378.89,157.31"/>
        <lane id=":431399479_2_1" index="1" speed="13.89" length="8.40" shape="369.66,156.02 377.03,160.04"/>
        <lane id=":431399479_2_2" index="2" speed="13.89" length="8.40" shape="368.46,159.09 375.17,162.76"/>
    </edge>
    <edge id=":928458346_0" function="internal">
        <lane id=":928458346_0_0" index="0" allow="delivery" speed="13.89" length="4.82" shape="0.63,289.38 -0.83,289.09 -1.53,288.49 -1.46,287.57 -0.63,286.33"/>
    </edge>

    <edge id="--428" from="2479049221" to="1519739620" priority="2" type="highway.service" shape="385.17,172.87 408.03,175.05 421.01,174.69 461.43,172.27 503.64,169.20 538.30,166.30 574.52,158.68 616.04,149.07 681.98,134.50 725.37,125.75">
        <lane id="--428_0" index="0" allow="delivery" speed="5.56" length="327.97" shape="401.77,172.79 408.19,173.41 420.96,173.04 461.33,170.62 503.52,167.56 538.16,164.66 574.18,157.07 615.67,147.47 681.62,132.89 725.04,124.13"/>
    </edge>
    <edge id="-240120119" from="1214943442" to="2479049221" priority="2" type="highway.service" shape="330.69,175.47 344.26,176.11 369.99,173.90 385.17,172.87">
        <lane id="-240120119_0" index="0" allow="delivery" speed="13.89" length="38.96" shape="338.36,174.18 344.34,174.46 369.85,172.25 377.19,171.76"/>
    </edge>
    <edge id="-240120122" from="928458346" to="1214943442" priority="2" type="highway.service" shape="0.00,287.86 129.51,234.60 195.81,207.16 226.90,193.77 261.24,185.13 330.69,175.47">
        <lane id="-240120122_0" index="0" allow="delivery" speed="13.89" length="338.29" shape="-0.63,286.33 128.88,233.07 195.18,205.64 226.24,192.25 260.83,183.53 317.30,175.67"/>
    </edge>
    <edge id="-420" from="1214943442" to="431399420" priority="9" type="highway.primary" spreadType="center" shape="330.69,175.47 333.77,166.77 339.92,159.84">
        <lane id="-420_0" index="0" speed="13.89" length="10.07" shape="329.70,168.37 330.87,165.06 336.08,159.18"/>
        <lane id="-420_1" index="1" speed="13.89" length="10.07" shape="332.81,169.47 333.77,166.77 338.55,161.37"/>
        <lane id="-420_2" index="2" speed="13.89" length="10.07" shape="335.92,170.57 336.66,168.47 341.02,163.56"/>
    </edge>
    <edge id="-424" from="2479387657" to="1214943442" priority="9" type="highway.primary" spreadType="center" shape="334.39,195.60 333.72,193.07 331.19,185.68 330.69,175.47">
        <lane id="-424_0" index="0" speed="13.89" length="7.81" shape="330.26,193.13 327.91,186.30 327.85,185.01"/>
        <lane id="-424_1" index="1" speed="13.89" length="7.81" shape="333.45,192.28 331.19,185.68 331.15,184.85"/>
        <lane id="-424_2" index="2" speed="13.89" length="7.81" shape="336.64,191.44 334.46,185.05 334.44,184.69"/>
    </edge>
    <edge id="-426" from="2479049221" to="431399476" priority="9" type="highway.primary" spreadType="center" shape="385.17,172.87 386.33,186.94 383.28,194.38 377.45,203.27">
        <lane id="-426_0" index="0" speed="13.89" length="28.58" shape="388.93,178.26 389.68,187.46 386.22,195.92 379.40,206.30"/>
        <lane id="-426_1" index="1" speed="13.89" length="28.58" shape="385.64,178.53 386.33,186.94 383.28,194.38 376.64,204.49"/>
        <lane id="-426_2" index="2" speed="13.89" length="28.58" shape="382.35,178.80 382.98,186.42 380.35,192.83 373.88,202.68"/>
    </edge>
    <edge id="-428" from="1519739620" to="2479049221" priority="2" type="highway.service" shape="725.37,125.75 681.98,134.50 616.04,149.07 574.52,158.68 538.30,166.30 503.64,169.20 461.43,172.27 421.01,174.69 408.03,175.05 385.17,172.87">
        <lane id="-428_0" index="0" allow="delivery" speed="5.56" length="328.94" shape="725.70,127.37 682.30,136.12 616.40,150.69 574.89,160.29 538.64,167.91 503.78,170.85 461.55,173.91 421.11,176.34 408.08,176.70 401.46,176.07"/>
    </edge>
    <edge id="-430" from="431399507" to="2479049221" priority="9" type="highway.primary" spreadType="center" shape="707.05,46.20 561.88,96.54 489.87,120.12 465.88,127.98 436.86,140.64 411.90,151.76 393.43,168.57 385.17,172.87">
        <lane id="-430_0" index="0" speed="13.89" length="331.93" shape="708.67,50.88 563.50,101.21 491.41,124.83 467.42,132.69 438.83,145.17 414.64,155.96 400.77,168.59"/>
        <lane id="-430_1" index="1" speed="13.89" length="331.93" shape="707.59,47.76 562.42,98.10 490.39,121.69 466.40,129.55 437.52,142.15 412.81,153.16 399.18,165.57"/>
        <lane id="-430_2" index="2" speed="13.89" length="331.93" shape="706.51,44.64 561.34,94.98 489.36,118.55 465.37,126.41 436.20,139.12 410.98,150.36 397.59,162.55"/>
        <lane id="-430_3" index="3" speed="13.89" length="331.93" shape="705.43,41.53 560.26,91.86 488.33,115.42 464.34,123.28 434.88,136.10 409.16,147.57 396.00,159.54"/>
    </edge>
    <edge id="-432" from="431399420" to="1214943548" priority="9" type="highway.primary" spreadType="center" shape="339.92,159.84 345.17,156.09 356.36,153.20">
        <lane id="-432_0" index="0" speed="13.89" length="8.02" shape="340.96,155.04 343.76,153.05 349.39,151.59"/>
        <lane id="-432_1" index="1" speed="13.89" length="8.02" shape="342.88,157.73 345.17,156.09 350.21,154.79"/>
        <lane id="-432_2" index="2" speed="13.89" length="8.02" shape="344.79,160.41 346.59,159.13 351.03,157.99"/>
    </edge>
    <edge id="105490271" from="2479387657" to="317980256" priority="9" type="highway.primary" spreadType="center" shape="334.39,195.60 324.67,201.49 302.94,207.47 127.07,266.74">
        <lane id="105490271_0" index="0" speed="13.89" length="213.76" shape="330.35,199.98 325.33,203.02 303.38,209.06 127.60,268.31"/>
        <lane id="105490271_1" index="1" speed="13.89" length="213.76" shape="328.64,197.16 324.01,199.96 302.51,205.87 126.54,265.18"/>
    </edge>
    <edge id="105490279" from="431399479" to="301266367" priority="5" type="highway.unclassified" spreadType="center" shape="373.11,157.36 380.95,145.87 386.80,137.42 410.65,114.08 445.96,92.95 486.31,73.47 543.06,52.34 622.10,26.65 688.18,0.00">
        <lane id="105490279_0" index="0" speed="13.89" length="352.04" shape="375.35,151.14 379.59,144.94 385.53,136.35 409.63,112.77 445.12,91.53 485.59,71.99 542.49,50.79 621.59,25.08 687.57,-1.53"/>
        <lane id="105490279_1" index="1" speed="13.89" length="352.04" shape="378.08,153.00 382.32,146.80 388.07,138.49 411.66,115.40 446.81,94.36 487.03,74.96 543.64,53.89 622.61,28.22 688.80,1.53"/>
    </edge>
    <edge id="105490284" from="431399476" to="301266318" priority="6" type="highway.tertiary" spreadType="center" shape="377.45,203.27 378.95,212.43 385.00,253.00 399.89,284.96 415.76,309.04">
        <lane id="105490284_0" index="0" speed="13.89" length="107.40" shape="378.58,210.17 378.95,212.43 385.00,253.00 399.89,284.96 415.76,309.04"/>
    </edge>
    <edge id="229259796" from="301264738" to="1214943442" priority="9" type="highway.primary" spreadType="center" shape="124.64,254.77 295.59,196.87 307.25,191.76 317.80,185.39 324.31,180.93 330.69,175.47">
        <lane id="229259796_0" index="0" speed="13.89" length="208.63" shape="124.11,253.21 295.06,195.30 306.58,190.25 316.95,183.98 319.27,182.39"/>
        <lane id="229259796_1" index="1" speed="13.89" length="208.63" shape="125.17,256.34 296.12,198.43 307.91,193.27 318.65,186.80 321.43,184.91"/>
    </edge>
    <edge id="239331353" from="431399420" to="-26" priority="5" type="highway.unclassified" spreadType="center" shape="339.92,159.84 332.86,147.29 329.30,138.76 283.87,33.48">
        <lane id="239331353_0" index="0" speed="22.22" length="131.70" shape="336.68,154.08 332.86,147.29 329.30,138.76 283.87,33.48"/>
    </edge>
    <edge id="239331354" from="-28" to="1214943548" priority="5" type="highway.unclassified" spreadType="center" shape="289.84,30.55 345.52,135.24 350.08,142.78 356.36,153.20">
        <lane id="239331354_0" index="0" speed="22.22" length="131.97" shape="291.30,29.78 346.98,134.47 351.49,141.93 353.86,145.86"/>
        <lane id="239331354_1" index="1" speed="22.22" length="131.97" shape="288.38,31.33 344.07,136.02 348.67,143.64 351.03,147.56"/>
    </edge>
    <edge id="240120119" from="2479049221" to="1214943442" priority="2" type="highway.service" shape="385.17,172.87 369.99,173.90 344.26,176.11 330.69,175.47">
        <lane id="240120119_0" index="0" allow="delivery" speed="13.89" length="39.33" shape="377.42,175.05 370.10,175.54 344.40,177.75 338.20,177.47"/>
    </edge>
    <edge id="240120122" from="1214943442" to="928458346" priority="2" type="highway.service" shape="330.69,175.47 261.24,185.13 226.90,193.77 195.81,207.16 129.51,234.60 0.00,287.86">
        <lane id="240120122_0" index="0" allow="delivery" speed="13.89" length="337.47" shape="317.76,178.94 261.46,186.76 227.30,195.37 196.46,208.68 130.14,236.12 0.63,289.38"/>
    </edge>
    <edge id="240142917#0" from="431399476" to="431399475" priority="9" type="highway.primary" spreadType="center" shape="377.45,203.27 374.08,204.33 367.75,206.69 356.53,208.84">
        <lane id="240142917#0_0" index="0" speed="13.89" length="11.19" shape="374.80,207.57 368.90,209.78 363.62,210.82"/>
        <lane id="240142917#0_1" index="1" speed="13.89" length="11.19" shape="373.81,204.43 367.75,206.69 363.00,207.60"/>
        <lane id="240142917#0_2" index="2" speed="13.89" length="11.19" shape="372.50,201.40 366.59,203.60 362.38,204.39"/>
    </edge>
    <edge id="240142917#1" from="431399475" to="2479387657" priority="9" type="highway.primary" spreadType="center" shape="356.53,208.84 348.81,207.02 343.13,204.17 334.39,195.60">
        <lane id="240142917#1_0" index="0" speed="13.89" length="20.40" shape="353.31,211.47 347.67,210.15 341.19,206.88 334.65,200.48"/>
        <lane id="240142917#1_1" index="1" speed="13.89" length="20.40" shape="354.07,208.26 348.81,207.02 343.13,204.17 336.96,198.12"/>
        <lane id="240142917#1_2" index="2" speed="13.89" length="20.40" shape="354.82,205.05 349.94,203.90 345.08,201.45 339.27,195.76"/>
    </edge>
    <edge id="240143209" from="1214943548" to="431399479" priority="9" type="highway.primary" spreadType="center" shape="356.36,153.20 365.67,154.47 373.11,157.36">
        <lane id="240143209_0" index="0" speed="13.89" length="11.21" shape="359.24,150.26 366.50,151.25 370.85,152.94"/>
        <lane id="240143209_1" index="1" speed="13.89" length="11.21" shape="358.80,153.53 365.67,154.47 369.66,156.02"/>
        <lane id="240143209_2" index="2" speed="13.89" length="11.21" shape="358.36,156.80 364.84,157.68 368.46,159.09"/>
    </edge>
    <edge id="240143210" from="431399479" to="2479049221" priority="9" type="highway.primary" spreadType="center" shape="373.11,157.36 377.91,160.64 381.16,164.70 384.29,170.23 385.17,172.87">
        <lane id="240143210_0" index="0" speed="13.89" length="6.56" shape="378.89,157.31 380.18,158.19 383.73,162.64 384.45,163.89"/>
        <lane id="240143210_1" index="1" speed="13.89" length="6.56" shape="377.03,160.04 377.91,160.64 381.16,164.70 381.31,164.97"/>
        <lane id="240143210_2" index="2" speed="13.89" length="6.56" shape="375.17,162.76 375.64,163.09 378.04,166.09"/>
    </edge>
    <edge id="28925528" from="-24" to="431399475" priority="6" type="highway.tertiary" spreadType="center" shape="410.20,311.13 395.62,287.30 383.62,269.45 373.55,238.86 356.53,208.84">
        <lane id="28925528_0" index="0" speed="13.89" length="108.41" shape="408.79,312.00 394.21,288.16 382.12,270.18 372.03,239.53 358.92,216.40"/>
        <lane id="28925528_1" index="1" speed="13.89" length="108.41" shape="411.60,310.27 397.03,286.43 385.12,268.72 375.06,238.19 361.79,214.77"/>
    </edge>

    <tlLogic id="1214943442" type="static" programID="0" offset="0">
        <phase duration="31" state="GGGGGrrrrrrgggg"/>
        <phase duration="4" state="yyyyyrrrrrrgggg"/>
        <phase duration="6" state="rrrrrrrrrrrGGGG"/>
        <phase duration="4" state="rrrrrrrrrrryyyy"/>
        <phase duration="31" state="rrrrrGggGGgrrrr"/>
        <phase duration="4" state="rrrrryggyygrrrr"/>
        <phase duration="6" state="rrrrrrGGrrGrrrr"/>
        <phase duration="4" state="rrrrrryyrryrrrr"/>
    </tlLogic>
    <tlLogic id="1214943548" type="static" programID="0" offset="0">
        <phase duration="31" state="GGrrr"/>
        <phase duration="7" state="yyrrr"/>
        <phase duration="31" state="rrGGG"/>
        <phase duration="7" state="rryyy"/>
    </tlLogic>
    <tlLogic id="2479049221" type="static" programID="0" offset="0">
        <phase duration="31" state="rrrGGGGGgggggrrr"/>
        <phase duration="4" state="rrryyyyygggggrrr"/>
        <phase duration="6" state="rrrrrrrrGGGGGrrr"/>
        <phase duration="4" state="rrrrrrrryyyyyrrr"/>
        <phase duration="31" state="gggrrrrrrrrrrGGg"/>
        <phase duration="4" state="gggrrrrrrrrrryyg"/>
        <phase duration="6" state="GGGrrrrrrrrrrrrG"/>
        <phase duration="4" state="yyyrrrrrrrrrrrry"/>
    </tlLogic>
    <tlLogic id="431399475" type="static" programID="0" offset="0">
        <phase duration="31" state="GGrrr"/>
        <phase duration="4" state="yyrrr"/>
        <phase duration="31" state="rrGGG"/>
        <phase duration="4" state="rryyy"/>
    </tlLogic>

    <junction id="-24" type="unregulated" x="410.20" y="311.13" incLanes="" intLanes="" shape="412.97,309.44 407.42,312.83"/>
    <junction id="-26" type="unregulated" x="283.87" y="33.48" incLanes="239331353_0" intLanes="" shape="282.40,34.11 285.34,32.84"/>
    <junction id="-28" type="unregulated" x="289.84" y="30.55" incLanes="" intLanes="" shape="286.97,32.08 292.71,29.03"/>
    <junction id="1214943442" type="traffic_light" x="330.69" y="175.47" incLanes="-424_0 -424_1 -424_2 240120119_0 -240120122_0 229259796_0 229259796_1" intLanes=":1214943442_0_0 :1214943442_1_0 :1214943442_1_1 :1214943442_1_2 :1214943442_15_0 :1214943442_5_0 :1214943442_16_0 :1214943442_17_0 :1214943442_8_0 :1214943442_9_0 :1214943442_18_0 :1214943442_11_0 :1214943442_12_0 :1214943442_12_1 :1214943442_14_0" shape="326.25,185.09 336.04,184.62 338.13,179.07 338.43,172.58 337.43,171.10 328.19,167.84 317.08,174.09 317.98,180.52 318.23,181.16 322.47,186.13">
        <request index="0" response="000000000000000" foes="111110000100000" cont="0"/>
        <request index="1" response="000000000000000" foes="111001101100000" cont="0"/>
        <request index="2" response="000000000000000" foes="111001101100000" cont="0"/>
        <request index="3" response="000000000000000" foes="111001101100000" cont="0"/>
        <request index="4" response="000000000000000" foes="100001011100000" cont="1"/>
        <request index="5" response="111100000011111" foes="111110000011111" cont="0"/>
        <request index="6" response="111001100011110" foes="111001100011110" cont="1"/>
        <request index="7" response="100001000010000" foes="100001000010000" cont="1"/>
        <request index="8" response="000000000001110" foes="011000001001110" cont="0"/>
        <request index="9" response="000000000011110" foes="111000011011110" cont="0"/>
        <request index="10" response="000100000100001" foes="000100000100001" cont="1"/>
        <request index="11" response="000000000000001" foes="000010000100001" cont="0"/>
        <request index="12" response="000001100001111" foes="000001101101111" cont="0"/>
        <request index="13" response="000001100001111" foes="000001101101111" cont="0"/>
        <request index="14" response="000001000011111" foes="000001011111111" cont="0"/>
    </junction>
    <junction id="1214943548" type="traffic_light" x="356.36" y="153.20" incLanes="239331354_0 239331354_1 -432_0 -432_1 -432_2" intLanes=":1214943548_0_0 :1214943548_0_1 :1214943548_2_0 :1214943548_2_1 :1214943548_2_2" shape="358.14,158.39 359.46,148.68 355.23,145.03 349.66,148.39 348.99,150.04 351.43,159.53">
        <request index="0" response="11100" foes="11100" cont="0"/>
        <request index="1" response="11100" foes="11100" cont="0"/>
        <request index="2" response="00000" foes="00011" cont="0"/>
        <request index="3" response="00000" foes="00011" cont="0"/>
        <request index="4" response="00000" foes="00011" cont="0"/>
    </junction>
    <junction id="1519739620" type="priority" x="725.37" y="125.75" incLanes="--428_0" intLanes=":1519739620_0_0" shape="725.38,125.80 726.01,128.93 724.73,122.56 725.36,125.70">
        <request index="0" response="0" foes="0" cont="0"/>
    </junction>
    <junction id="2479049221" type="traffic_light" x="385.17" y="172.87" incLanes="-428_0 -430_0 -430_1 -430_2 -430_3 240143210_0 240143210_1 240143210_2 -240120119_0" intLanes=":2479049221_0_0 :2479049221_1_0 :2479049221_16_0 :2479049221_3_0 :2479049221_4_0 :2479049221_4_1 :2479049221_4_2 :2479049221_7_0 :2479049221_8_0 :2479049221_9_0 :2479049221_9_1 :2479049221_9_2 :2479049221_17_0 :2479049221_13_0 :2479049221_18_0 :2479049221_19_0" shape="380.76,178.93 390.52,178.13 401.30,177.66 401.92,171.20 401.54,170.05 395.23,158.07 386.00,163.37 376.43,166.63 377.09,170.16 377.52,176.64">