<?xml version="1.0" encoding="UTF-8"?>

<!-- generated on Tue Feb  4 18:45:25 2014 by SUMO netconvert Version 0.19.0
<?xml version="1.0" encoding="UTF-8"?>

<configuration xmlns:xsi="http://www.w3.org/2001/XMLSchema-instance" xsi:noNamespaceSchemaLocation="http://sumo-sim.org/xsd/netconvertConfiguration.xsd">

    <input>
        <sumo-net-file value="mapComplete.net.xml"/>
    </input>

    <output>
        <output-file value="net.net.xml"/>
    </output>

    <edge_removal>
        <keep-edges.in-boundary value="12440.63,13425.63,13634.61,14481.68"/>
    </edge_removal>

    <processing>
        <no-internal-links value="true"/>
        <no-turnarounds value="true"/>
        <offset.disable-normalization value="true"/>
    </processing>

</configuration>
-->

<net version="0.13" xmlns:xsi="http://www.w3.org/2001/XMLSchema-instance" xsi:noNamespaceSchemaLocation="http://sumo-sim.org/xsd/net_file.xsd">

    <location netOffset="-342498.94,-5630768.18" convBoundary="12366.88,13310.32,13693.65,14586.16" origBoundary="6.762104,50.772113,7.223816,51.127596" projParameter="+proj=utm +zone=32 +ellps=WGS84 +datum=WGS84 +units=m +no_defs"/>

    <edge id="-109063043" from="1354858" to="1352598" priority="4" type="highway.residential" shape="13388.77,13882.84 13386.89,13863.60 13386.66,13861.31 13383.04,13824.06 13382.01,13816.24">
        <lane id="-109063043_0" index="0" speed="13.89" length="66.95" shape="13386.55,13877.09 13385.25,13863.76 13385.02,13861.47 13381.40,13824.22 13380.77,13819.47"/>
    </edge>
    <edge id="-144935692#1" from="725152259" to="cluster_1584118476_359621" priority="7" type="highway.secondary" shape="12462.12,13718.78 12448.83,13712.68 12438.45,13706.31 12383.76,13658.36">
        <lane id="-144935692#1_0" index="0" speed="13.89" length="107.95" shape="12457.77,13722.23 12446.77,13717.18 12435.86,13710.53 12376.10,13658.24"/>
        <lane id="-144935692#1_1" index="1" speed="13.89" length="107.95" shape="12459.15,13719.23 12448.14,13714.18 12437.59,13707.72 12378.28,13655.75"/>
    </edge>
    <edge id="-144935692#2" from="359616" to="725152259" priority="7" type="highway.secondary">
        <lane id="-144935692#2_0" index="0" speed="13.89" length="173.81" shape="12617.65,13785.61 12463.42,13724.62"/>
        <lane id="-144935692#2_1" index="1" speed="13.89" length="173.81" shape="12618.86,13782.54 12464.63,13721.55"/>
    </edge>
    <edge id="-145261460" from="1352602" to="1352599" priority="4" type="highway.residential" shape="13205.54,13842.03 13219.96,13837.99 13239.04,13834.47 13256.72,13831.56 13294.75,13826.12">
        <lane id="-145261460_0" index="0" speed="8.33" length="90.71" shape="13205.09,13840.44 13219.51,13836.40 13238.74,13832.85 13256.45,13829.93 13291.39,13824.93"/>
    </edge>
    <edge id="-150031186" from="1352550" to="1672454814" priority="4" type="highway.residential" shape="12915.88,13619.83 13004.01,13641.74 13016.35,13645.09 13025.14,13647.88 13028.99,13651.07 13031.18,13656.13 13032.60,13664.02 13034.52,13671.26 13037.72,13675.30 13043.03,13679.75 13049.38,13686.23 13049.13,13687.64">
        <lane id="-150031186_0" index="0" speed="13.89" length="162.24" shape="12920.89,13619.37 13004.41,13640.14 13016.78,13643.50 13025.95,13646.40 13030.35,13650.05 13032.77,13655.65 13034.22,13663.73 13036.03,13670.50 13038.91,13674.14 13044.09,13678.49 13051.15,13685.68 13051.01,13686.46"/>
    </edge>
    <edge id="-154755068#2" from="25630562" to="cluster_1238725_1672368114" priority="4" type="highway.residential" shape="13086.80,14355.67 13085.60,14360.08 13073.62,14409.67">
        <lane id="-154755068#2_0" index="0" speed="13.89" length="60.37" shape="13088.00,14357.55 13087.19,14360.51 13076.33,14405.48"/>
    </edge>
    <edge id="-154755070" from="21764086" to="12950612" priority="4" type="highway.residential" shape="12401.46,14435.17 12411.43,14434.94 12549.05,14448.64 12597.69,14453.24 12609.24,14454.55 12615.78,14454.13 12617.85,14453.75 12619.19,14452.88 12620.18,14451.46 12620.21,14448.06 12614.42,14395.13 12610.86,14382.01 12607.31,14356.97">
        <lane id="-154755070_0" index="0" speed="8.33" length="316.27" shape="12401.42,14433.52 12411.39,14433.29 12549.21,14447.00 12597.85,14451.60 12609.28,14452.89 12615.67,14452.48 12617.23,14452.19 12618.02,14451.67 12618.53,14450.94 12618.56,14448.05 12612.78,14395.31 12609.27,14382.44 12606.03,14359.66"/>
    </edge>
    <edge id="-154755071" from="1352612" to="1352610" priority="4" type="highway.residential">
        <lane id="-154755071_0" index="0" speed="13.89" length="105.73" shape="12843.89,13826.50 12852.75,13729.32"/>
    </edge>
    <edge id="-154755073#1" from="10989096" to="cluster_1352634_1352636_313719303_313719304_368859" priority="4" type="highway.residential" shape="12583.64,14041.86 12583.98,14027.27 12584.26,14015.24">
        <lane id="-154755073#1_0" index="0" speed="8.33" length="28.46" shape="12582.03,14040.24 12582.33,14027.23 12582.48,14021.01"/>
    </edge>
    <edge id="-154755073#2" from="10853913" to="10989096" priority="4" type="highway.residential">
        <lane id="-154755073#2_0" index="0" speed="8.33" length="83.39" shape="12575.90,14121.42 12581.54,14047.72"/>
    </edge>
    <edge id="-154755073#3" from="10924332" to="10853913" priority="4" type="highway.residential">
        <lane id="-154755073#3_0" index="0" speed="8.33" length="102.52" shape="12589.92,14221.83 12576.16,14128.68"/>
    </edge>
    <edge id="-154755073#4" from="12950612" to="10924332" priority="4" type="highway.residential" shape="12607.31,14356.97 12608.14,14349.16 12592.27,14226.43">
        <lane id="-154755073#4_0" index="0" speed="8.33" length="131.61" shape="12605.98,14353.87 12606.48,14349.18 12591.26,14231.49"/>
    </edge>
    <edge id="-154755095#0" from="1352550" to="1352542" priority="4" type="highway.residential" shape="12915.88,13619.83 12904.25,13666.54 12828.53,13652.89">
        <lane id="-154755095#0_0" index="0" speed="13.89" length="125.08" shape="12916.33,13624.84 12905.48,13668.44 12832.77,13655.33"/>
    </edge>
    <edge id="-154755095#1" from="cluster_1352552_1672454737" to="1352550" priority="4" type="highway.residential" shape="12936.48,13537.00 12915.88,13619.83">
        <lane id="-154755095#1_0" index="0" speed="13.89" length="92.44" shape="12939.16,13533.06 12918.63,13615.62"/>
    </edge>
    <edge id="-154755100#0" from="10924332" to="10854209" priority="4" type="highway.residential">
        <lane id="-154755100#0_0" index="0" speed="13.89" length="171.42" shape="12587.57,14228.58 12421.93,14245.75"/>
    </edge>
    <edge id="-154755100#1" from="356950679" to="10924332" priority="4" type="highway.residential" shape="12689.41,14217.33 12611.89,14224.73 12592.27,14226.43">
        <lane id="-154755100#1_0" index="0" speed="13.89" length="97.57" shape="12688.08,14219.11 12612.05,14226.37 12597.28,14227.65"/>
    </edge>
    <edge id="-154755102#2" from="1352608" to="1352544" priority="4" type="highway.residential" shape="13105.75,13864.09 13090.71,13863.94 13078.98,13863.88 12993.42,13864.69 12980.47,13863.74 12972.11,13861.70 12963.98,13860.23">
        <lane id="-154755102#2_0" index="0" speed="13.89" length="142.19" shape="13100.94,13865.69 13090.69,13865.59 13078.97,13865.53 12993.44,13866.34 12980.35,13865.39 12971.72,13863.30 12967.70,13862.58"/>
    </edge>
    <edge id="-159325508#2" from="25631194" to="25630711" priority="4" type="highway.residential" shape="13200.89,14489.55 13204.53,14482.18 13207.93,14475.32 13209.36,14463.51 13208.10,14449.63 13201.10,14395.75 13198.74,14377.22">
        <lane id="-159325508#2_0" index="0" speed="8.33" length="114.72" shape="13199.41,14488.82 13203.05,14481.45 13206.33,14474.84 13207.70,14463.49 13206.46,14449.78 13199.46,14395.96 13197.73,14382.33"/>
    </edge>
    <edge id="-165511531#0" from="1352591" to="1352592" priority="4" type="highway.residential" shape="13140.38,13671.82 13126.12,13662.83 13120.48,13657.77 13117.82,13652.83 13115.59,13640.83 13116.95,13629.43">
        <lane id="-165511531#0_0" index="0" speed="13.89" length="79.67" shape="13134.60,13670.13 13125.24,13664.23 13119.16,13658.81 13116.24,13653.39 13113.92,13640.88 13118.20,13605.03"/>
    </edge>
    <edge id="-165511531#1" from="cluster_1352589_1672454812" to="1352591" priority="4" type="highway.residential" shape="13159.51,13682.52 13140.38,13671.82">
        <lane id="-165511531#1_0" index="0" speed="13.89" length="23.72" shape="13151.99,13680.20 13140.96,13674.03"/>
    </edge>
    <edge id="-165515969#3" from="cluster_1352552_1672454737" to="cluster_1770563573_354673595" priority="15" type="highway.service|railway.tram" shape="12936.48,13537.00 12971.91,13572.63 13008.85,13607.90 13019.51,13616.83 13029.63,13622.40 13038.11,13624.54 13048.57,13626.20 13062.72,13627.03 13083.50,13627.46 13094.98,13632.66 13101.45,13637.39 13110.40,13651.02 13112.71,13660.45 13113.36,13673.99 13113.55,13681.19 13112.98,13692.32">
        <lane id="-165515969#3_0" index="0" speed="27.78" length="279.33" shape="12935.06,13533.23 12973.08,13571.47 13009.99,13606.71 13020.45,13615.46 13030.24,13620.85 13038.51,13622.94 13048.83,13624.57 13062.82,13625.38 13083.87,13625.82 13095.82,13631.23 13102.67,13636.23 13111.94,13650.35 13114.35,13660.21 13115.01,13673.91 13115.17,13680.09"/>
    </edge>
    <edge id="-165515970#1" from="1352602" to="673482273" priority="4" type="highway.residential" shape="13205.54,13842.03 13190.06,13846.62 13181.42,13850.21 13171.37,13855.98 13162.80,13861.79">
        <lane id="-165515970#1_0" index="0" speed="13.89" length="47.44" shape="13206.01,13843.61 13190.53,13848.20 13182.05,13851.73 13172.19,13857.41 13170.26,13858.72"/>
    </edge>
    <edge id="-167324659" from="cluster_26538293_359615" to="359616" priority="7" type="highway.secondary" shape="12699.74,13811.39 12689.80,13809.30 12623.75,13782.70">
        <lane id="-167324659_0" index="0" speed="13.89" length="85.61" shape="12694.20,13815.28 12688.36,13814.05 12626.16,13789.01"/>
        <lane id="-167324659_1" index="1" speed="13.89" length="85.61" shape="12694.88,13812.05 12689.32,13810.88 12627.39,13785.95"/>
    </edge>
    <edge id="-175607927#0" from="257894366" to="25630646" priority="4" type="highway.residential" shape="13641.96,14194.32 13617.70,14196.73 13500.29,14212.00">
        <lane id="-175607927#0_0" index="0" speed="13.89" length="142.78" shape="13642.12,14195.96 13617.86,14198.37 13505.81,14212.95"/>
    </edge>
    <edge id="-186463490#0" from="1352612" to="1352541" priority="4" type="highway.residential">
        <lane id="-186463490#0_0" index="0" speed="13.89" length="52.69" shape="12839.97,13832.48 12795.91,13826.05"/>
    </edge>
    <edge id="-186463490#1" from="1352544" to="1352612" priority="4" type="highway.residential" shape="12963.98,13860.23 12877.00,13836.95 12845.09,13831.56">
        <lane id="-186463490#1_0" index="0" speed="13.89" length="122.40" shape="12960.17,13860.92 12876.57,13838.54 12849.26,13833.94"/>
    </edge>
    <edge id="-198147972" from="1352615" to="1352542" priority="4" type="highway.residential">
        <lane id="-198147972_0" index="0" speed="13.89" length="67.06" shape="12812.72,13714.78 12825.90,13657.01"/>
    </edge>
    <edge id="-200671461" from="cluster_2106346103_2139839870" to="245902668" priority="4" type="highway.residential" shape="13684.96,13636.57 13671.52,13634.67 13629.00,13626.27">
        <lane id="-200671461_0" index="0" speed="13.89" length="64.70" shape="13692.44,13639.29 13671.29,13636.30 13633.35,13628.81"/>
    </edge>
    <edge id="-205044667" from="295804475" to="57354649" priority="4" type="highway.residential" shape="13155.84,14024.45 13161.21,14018.82 13168.85,14012.40">
        <lane id="-205044667_0" index="0" speed="13.89" length="21.40" shape="13156.22,14021.66 13160.02,14017.68 13170.37,14008.96"/>
    </edge>
    <edge id="-210039165#0" from="245901691" to="cluster_1093872774_245901919_245904890" priority="4" type="highway.residential" shape="13449.74,13472.56 13449.95,13460.55 13449.14,13434.78 13451.73,13393.07 13452.16,13385.13 13452.08,13374.25">
        <lane id="-210039165#0_0" index="0" speed="13.89" length="100.74" shape="13448.16,13468.78 13448.30,13460.52 13447.49,13434.83 13450.08,13392.97 13450.51,13385.04 13450.46,13378.18"/>
    </edge>
    <edge id="-210042206" from="245904979" to="245901691" priority="4" type="highway.residential" shape="13433.47,13603.35 13434.89,13593.47 13437.20,13577.51 13446.92,13509.78 13448.44,13501.63 13449.45,13496.47 13449.74,13472.56">
        <lane id="-210042206_0" index="0" speed="13.89" length="131.99" shape="13432.77,13596.63 13433.26,13593.24 13435.57,13577.27 13445.29,13509.55 13446.82,13501.33 13447.80,13496.30 13448.04,13476.53"/>
    </edge>
    <edge id="-22873505#1" from="245902382" to="245902668" priority="4" type="highway.residential" shape="13645.55,13543.98 13631.40,13614.36 13629.00,13626.27">
        <lane id="-22873505#1_0" index="0" speed="13.89" length="83.94" shape="13646.72,13546.53 13633.02,13614.69 13631.56,13621.93"/>
    </edge>
    <edge id="-22873524#2" from="1352624" to="245904979" priority="4" type="highway.residential" shape="13376.84,13572.58 13382.59,13574.81 13395.95,13581.63 13418.60,13593.80 13433.47,13603.35">
        <lane id="-22873524#2_0" index="0" speed="8.33" length="64.55" shape="13379.76,13571.94 13383.19,13573.27 13396.70,13580.16 13419.38,13592.35 13428.85,13598.42"/>
    </edge>
    <edge id="-22873531#1" from="cluster_245902761_673956806" to="245902668" priority="4" type="highway.residential" shape="13617.55,13714.93 13621.96,13676.67 13626.95,13633.42 13629.00,13626.27">
        <lane id="-22873531#1_0" index="0" speed="13.89" length="92.66" shape="13616.51,13709.54 13620.32,13676.48 13625.31,13633.23 13625.98,13630.87"/>
    </edge>
    <edge id="-22873540#5" from="245906727" to="cluster_1093872774_245901919_245904890" priority="4" type="highway.residential" shape="13524.83,13492.81 13525.45,13479.52 13525.87,13470.40 13527.37,13438.30 13528.53,13413.62 13528.84,13406.88 13529.11,13401.22 13529.54,13391.84 13529.80,13386.28 13522.48,13385.44 13497.13,13381.21 13469.84,13377.45 13452.08,13374.25">
        <lane id="-22873540#5_0" index="0" speed="13.89" length="187.63" shape="13523.36,13488.88 13523.80,13479.44 13524.22,13470.32 13525.72,13438.22 13526.88,13413.54 13527.19,13406.80 13527.46,13401.14 13527.89,13391.76 13528.08,13387.74 13522.29,13387.08 13496.86,13382.84 13469.61,13379.08 13455.64,13376.57"/>
    </edge>
    <edge id="-23015531#2" from="831212699" to="1352594" priority="4" type="highway.residential" shape="13353.42,13702.28 13320.81,13692.30 13315.82,13691.03 13281.46,13682.19">
        <lane id="-23015531#2_0" index="0" speed="13.89" length="74.73" shape="13348.68,13702.56 13320.33,13693.88 13315.41,13692.63 13285.28,13684.88"/>
    </edge>
    <edge id="-23015533" from="245904979" to="248145529" priority="4" type="highway.residential">
        <lane id="-23015533_0" index="0" speed="13.89" length="110.79" shape="13434.96,13608.36 13431.66,13708.94"/>
    </edge>
    <edge id="-23015624" from="256500830" to="248147142" priority="4" type="highway.residential" shape="13610.25,13428.01 13594.92,13469.82 13578.75,13510.47">
        <lane id="-23015624_0" index="0" speed="13.89" length="88.28" shape="13611.80,13428.58 13596.47,13470.39 13581.33,13508.45"/>
    </edge>
    <edge id="-23471151#0" from="cluster_1142037858_1142037884_443339" to="54747466" priority="15" type="highway.service|railway.tram" shape="12906.09,13942.44 12873.94,13948.71">
        <lane id="-23471151#0_0" index="0" speed="27.78" length="72.80" shape="12878.29,13949.54 12865.24,13952.09"/>
    </edge>
    <edge id="-23471151#2" from="644599999" to="cluster_1142037858_1142037884_443339" priority="15" type="highway.service|railway.tram" shape="13051.31,13937.62 13016.02,13937.87 12946.69,13936.31 12915.07,13941.32 12906.09,13942.44">
        <lane id="-23471151#2_0" index="0" speed="27.78" length="172.89" shape="13048.12,13939.29 13016.03,13939.52 12946.80,13937.96 12915.33,13942.95 12881.01,13947.23"/>
    </edge>
    <edge id="-23567657#1" from="cluster_25630718_376489851" to="26904576" priority="4" type="highway.residential" shape="13507.86,14394.15 13507.75,14410.59 13507.65,14429.64">
        <lane id="-23567657#1_0" index="0" speed="13.89" length="40.12" shape="13509.49,14397.46 13509.40,14410.60 13509.32,14426.58"/>
    </edge>
    <edge id="-26241634" from="662768668" to="cluster_25630644_287369971" priority="4" type="highway.residential" shape="13313.96,14262.45 13309.76,14215.83">
        <lane id="-26241634_0" index="0" speed="8.33" length="50.23" shape="13312.00,14259.13 13307.81,14212.57"/>
    </edge>
    <edge id="-26811074" from="1352607" to="cluster_1352552_1672454737" priority="15" type="highway.residential|railway.tram" shape="12870.55,13481.17 12936.48,13537.00">
        <lane id="-26811074_0" index="0" speed="27.78" length="93.48" shape="12875.36,13483.08 12933.58,13532.38"/>
    </edge>
    <edge id="-27290012#2" from="cluster_1352617_1589663044_1629678757" to="1354852" priority="4" type="highway.residential" shape="12736.56,13630.42 12716.10,13615.27 12674.46,13583.20 12657.57,13570.27">
        <lane id="-27290012#2_0" index="0" speed="13.89" length="110.30" shape="12743.73,13637.78 12715.12,13616.60 12673.45,13584.51 12660.76,13574.79"/>
    </edge>
    <edge id="-27602630#1" from="cluster_272821756_443859" to="644599999" priority="15" type="highway.service|railway.tram" shape="13171.67,13932.89 13151.43,13934.85 13139.56,13935.45 13115.96,13936.85 13097.25,13937.83 13081.44,13937.74 13051.31,13937.62">
        <lane id="-27602630#1_0" index="0" speed="27.78" length="125.61" shape="13165.75,13935.12 13151.59,13936.49 13139.64,13937.10 13116.06,13938.50 13097.34,13939.48 13081.43,13939.39 13054.47,13939.28"/>
    </edge>
    <edge id="-27602630#3" from="254414030" to="cluster_272821756_443859" priority="15" type="highway.service|railway.tram" shape="13194.29,13930.86 13181.83,13931.91 13171.67,13932.89">
        <lane id="-27602630#3_0" index="0" speed="27.78" length="27.79" shape="13189.17,13932.95 13181.97,13933.55 13176.24,13934.11"/>
    </edge>
    <edge id="-29206900" from="cluster_25630644_287369971" to="25630640" priority="4" type="highway.residential" shape="13308.87,14209.04 13305.27,14172.45 13303.16,14133.08">
        <lane id="-29206900_0" index="0" speed="8.33" length="79.62" shape="13307.56,14212.59 13303.63,14172.61 13301.69,14136.45"/>
    </edge>
    <edge id="-29214406" from="25630646" to="cluster_25630718_376489851" priority="4" type="highway.residential" shape="13500.29,14212.00 13502.88,14220.41 13508.29,14237.93 13512.97,14266.40 13513.45,14287.61 13513.16,14290.20 13509.00,14328.42 13508.69,14335.16 13508.59,14336.91 13508.54,14339.72 13508.40,14346.80 13507.92,14370.78 13507.68,14384.90">
        <lane id="-29214406_0" index="0" speed="13.89" length="179.38" shape="13503.44,14216.63 13504.46,14219.92 13509.87,14237.44 13514.60,14266.13 13515.10,14287.57 13514.80,14290.38 13510.64,14328.60 13510.34,14335.24 13510.24,14337.00 13510.19,14339.75 13510.05,14346.83 13509.57,14370.81 13509.38,14381.72"/>
    </edge>
    <edge id="-32064260#1" from="cluster_363969643_725152260" to="359612" priority="9" type="highway.primary" shape="12532.45,13475.54 12586.13,13425.28 12593.03,13418.79">
        <lane id="-32064260#1_0" index="0" speed="13.89" length="89.54" shape="12533.37,13467.90 12582.75,13421.67 12589.64,13415.18"/>
        <lane id="-32064260#1_1" index="1" speed="13.89" length="89.54" shape="12535.63,13470.31 12585.00,13424.08 12591.90,13417.59"/>
    </edge>
    <edge id="-32064260#4" from="359614" to="cluster_363969643_725152260" priority="9" type="highway.primary" shape="12435.72,13566.95 12480.47,13524.80 12514.47,13492.77 12523.09,13484.65">
        <lane id="-32064260#4_0" index="0" speed="13.89" length="126.56" shape="12432.33,13563.35 12477.08,13521.20 12511.08,13489.17 12518.25,13482.41"/>
        <lane id="-32064260#4_1" index="1" speed="13.89" length="126.56" shape="12434.59,13565.75 12479.34,13523.60 12513.34,13491.57 12520.51,13484.81"/>
    </edge>
    <edge id="-32930555#2" from="25631476" to="255236089" priority="4" type="highway.residential" shape="13632.72,14352.21 13614.65,14349.58 13583.68,14314.03 13570.61,14292.27">
        <lane id="-32930555#2_0" index="0" speed="13.89" length="90.79" shape="13622.99,14352.46 13613.81,14351.12 13582.34,14315.00 13569.20,14293.12"/>
    </edge>
    <edge id="-37866521#1" from="cluster_245905318_444335560" to="cluster_245902761_673956806" priority="4" type="highway.residential" shape="13660.49,13714.60 13632.87,13714.55 13617.55,13714.93">
        <lane id="-37866521#1_0" index="0" speed="13.89" length="52.00" shape="13666.37,13716.26 13632.87,13716.20 13622.83,13716.45"/>
    </edge>
    <edge id="-4400309" from="25630685" to="25630652" priority="4" type="highway.residential">
        <lane id="-4400309_0" index="0" speed="13.89" length="42.73" shape="13476.78,14108.03 13471.26,14078.94"/>
    </edge>
    <edge id="-48405469" from="25630574" to="cluster_1578199924_25630558_25630988" priority="4" type="highway.residential" shape="13167.70,14249.82 13159.27,14246.67 13146.09,14243.42 13131.93,14240.29">
        <lane id="-48405469_0" index="0" speed="13.89" length="46.81" shape="13162.79,14249.75 13158.69,14248.22 13145.69,14245.02 13137.87,14243.29"/>
    </edge>
    <edge id="-48456085#0" from="25630713" to="cluster_376461691_615623844_615623884" priority="4" type="highway.residential" shape="13506.44,14464.86 13505.19,14497.90">
        <lane id="-48456085#0_0" index="0" speed="8.33" length="43.12" shape="13507.97,14468.04 13506.46,14507.87"/>
    </edge>
    <edge id="-48456085#1" from="26904576" to="25630713" priority="4" type="highway.residential">
        <lane id="-48456085#1_0" index="0" speed="8.33" length="35.24" shape="13509.19,14432.74 13508.20,14461.83"/>
    </edge>
    <edge id="-50061433" from="cluster_245902761_673956806" to="549912716" priority="4" type="highway.residential" shape="13611.22,13715.15 13611.21,13719.13 13610.95,13772.24">
        <lane id="-50061433_0" index="0" speed="13.89" length="60.25" shape="13612.85,13720.15 13612.61,13770.60"/>
    </edge>
    <edge id="-55940134" from="1352541" to="cluster_26538293_359615" priority="4" type="highway.residential" shape="12792.95,13823.95 12750.09,13817.90 12708.03,13813.21">
        <lane id="-55940134_0" index="0" speed="13.89" length="89.84" shape="12789.79,13825.17 12749.86,13819.53 12712.99,13815.42"/>
    </edge>
    <edge id="-6186578" from="33019873" to="25630561" priority="4" type="highway.residential" shape="12883.21,14586.16 12873.02,14541.21 12857.72,14476.44">
        <lane id="-6186578_0" index="0" speed="13.89" length="116.31" shape="12881.60,14586.52 12871.41,14541.57 12857.03,14480.69"/>
    </edge>
    <edge id="-69366482#2" from="248145529" to="831212705" priority="4" type="highway.residential" shape="13429.84,13714.08 13407.75,13710.48 13376.30,13705.37 13366.43,13703.77">
        <lane id="-69366482#2_0" index="0" speed="13.89" length="64.24" shape="13424.44,13714.87 13407.48,13712.11 13376.04,13707.00 13370.38,13706.08"/>
    </edge>
    <edge id="-79689707" from="1352586" to="406386655" priority="4" type="highway.residential">
        <lane id="-79689707_0" index="0" speed="13.89" length="104.31" shape="13188.68,13577.85 13177.10,13676.50"/>
    </edge>
    <edge id="-8096211#1" from="1352608" to="443341" priority="15" type="highway.residential|railway.tram" shape="13105.75,13864.09 13105.03,13895.36 13103.82,13929.16">
        <lane id="-8096211#1_0" index="0" speed="27.78" length="65.10" shape="13107.29,13868.92 13106.68,13895.40 13105.65,13924.09"/>
    </edge>
    <edge id="-8225101" from="673482273" to="1352608" priority="4" type="highway.residential" shape="13162.80,13861.79 13158.65,13863.68 13154.79,13864.59 13146.66,13865.38 13140.41,13865.18 13105.75,13864.09">
        <lane id="-8225101_0" index="0" speed="13.89" length="57.62" shape="13157.47,13865.65 13155.17,13866.20 13146.82,13867.02 13140.36,13866.83 13110.47,13865.89"/>
    </edge>
    <edge id="-8225106" from="831212700" to="1352623" priority="4" type="highway.residential" shape="13359.48,13697.00 13366.99,13583.25 13367.75,13578.45">
        <lane id="-8225106_0" index="0" speed="8.33" length="118.86" shape="13358.13,13692.40 13365.34,13583.14 13365.67,13581.04"/>
    </edge>
    <edge id="-8225109#2" from="1352594" to="cluster_1352589_1672454812" priority="4" type="highway.residential" shape="13281.46,13682.19 13180.98,13685.25 13169.19,13684.95 13162.87,13683.80">
        <lane id="-8225109#2_0" index="0" speed="13.89" length="120.54" shape="13278.08,13683.94 13181.03,13686.90 13169.15,13686.60 13167.89,13686.38"/>
    </edge>
    <edge id="-8225110#0" from="1352586" to="1352584" priority="4" type="highway.residential">
        <lane id="-8225110#0_0" index="0" speed="13.89" length="82.86" shape="13192.82,13572.01 13265.44,13585.64"/>
    </edge>
    <edge id="-8225110#1" from="1352566" to="1352586" priority="4" type="highway.residential">
        <lane id="-8225110#1_0" index="0" speed="13.89" length="57.70" shape="13134.67,13562.93 13183.29,13570.38"/>
    </edge>
    <edge id="-8225129" from="cluster_1352552_1672454737" to="1352555" priority="3" type="highway.living_street" shape="12944.79,13525.50 13005.06,13587.59">
        <lane id="-8225129_0" index="0" speed="2.78" length="98.19" shape="12945.97,13524.35 13002.88,13582.97"/>
    </edge>
    <edge id="-8225138" from="1352584" to="1352626" priority="4" type="highway.residential" shape="13269.06,13588.00 13352.89,13570.86 13359.05,13570.51">
        <lane id="-8225138_0" index="0" speed="13.89" length="91.73" shape="13272.21,13585.67 13352.56,13569.24 13356.16,13569.03"/>
    </edge>
    <edge id="-8225144#1" from="1352628" to="1093872785" priority="4" type="highway.residential">
        <lane id="-8225144#1_0" index="0" speed="13.89" length="56.44" shape="13318.48,13438.64 13297.39,13397.81"/>
    </edge>
    <edge id="-8225144#3" from="1352625" to="1352628" priority="4" type="highway.residential" shape="13364.17,13560.93 13362.05,13551.56 13345.06,13496.40 13320.69,13439.32">
        <lane id="-8225144#3_0" index="0" speed="13.89" length="129.39" shape="13361.84,13558.09 13360.44,13551.92 13343.48,13496.89 13321.62,13445.70"/>
    </edge>
    <edge id="-83823403#2" from="cluster_245902761_673956806" to="248145529" priority="4" type="highway.residential" shape="13611.22,13715.15 13575.84,13717.69 13567.84,13718.58 13561.01,13718.88 13539.92,13719.52 13529.30,13719.65 13467.07,13715.66 13440.96,13715.00 13437.47,13714.70 13429.84,13714.08">
        <lane id="-83823403#2_0" index="0" speed="13.89" length="184.87" shape="13606.35,13717.15 13575.96,13719.34 13568.02,13720.22 13561.08,13720.53 13539.97,13721.17 13529.32,13721.30 13466.96,13717.31 13440.92,13716.65 13437.33,13716.34 13434.29,13716.10"/>
    </edge>
    <edge id="-85414282#1" from="1352598" to="831212712" priority="4" type="highway.residential" shape="13382.01,13816.24 13377.92,13788.27 13363.51,13727.67 13360.21,13710.13">
        <lane id="-85414282#1_0" index="0" speed="8.33" length="108.40" shape="13379.91,13813.31 13376.29,13788.51 13361.90,13728.05 13359.40,13714.77"/>
    </edge>
    <edge id="110927124" from="25630575" to="25630574" priority="4" type="highway.residential" spreadType="center">
        <lane id="110927124_0" index="0" speed="13.89" length="35.60" shape="13166.25,14217.31 13167.45,14244.12"/>
    </edge>
    <edge id="110967367#0" from="1238722" to="cluster_1238725_1672368114" priority="7" type="highway.secondary" spreadType="center" shape="13195.22,14497.49 13185.94,14491.22 13160.71,14469.83 13146.20,14457.98 13134.77,14448.64 13121.77,14439.79 13111.06,14433.79 13091.59,14425.67 13070.12,14418.57">
        <lane id="110967367#0_0" index="0" speed="27.78" length="154.26" shape="13194.30,14498.86 13185.02,14492.59 13159.64,14471.09 13145.16,14459.26 13133.73,14449.92 13120.84,14441.15 13110.25,14435.23 13090.95,14427.19 13073.47,14421.41"/>
        <lane id="110967367#0_1" index="1" speed="27.78" length="154.26" shape="13196.14,14496.12 13186.86,14489.85 13161.78,14468.57 13147.24,14456.70 13135.81,14447.36 13122.70,14438.43 13111.87,14432.35 13092.23,14424.15 13074.72,14418.35"/>
    </edge>
    <edge id="122989592#2" from="1672454856" to="673482354" priority="7" type="highway.secondary" spreadType="center">
        <lane id="122989592#2_0" index="0" speed="8.33" length="74.34" shape="13292.08,13993.94 13235.24,14002.56"/>
        <lane id="122989592#2_1" index="1" speed="8.33" length="74.34" shape="13291.59,13990.68 13234.75,13999.29"/>
        <lane id="122989592#2_2" index="2" speed="8.33" length="74.34" shape="13291.09,13987.42 13234.26,13996.03"/>
    </edge>
    <edge id="129833339#1" from="1672454852" to="1431777705" priority="7" type="highway.secondary" spreadType="center" shape="12806.35,13982.95 12803.99,13983.29 12786.65,13986.20 12765.26,13989.94">
        <lane id="129833339#1_0" index="0" speed="13.89" length="41.68" shape="12804.23,13984.92 12786.92,13987.83 12767.01,13991.31"/>
        <lane id="129833339#1_1" index="1" speed="13.89" length="41.68" shape="12803.76,13981.66 12786.38,13984.57 12766.44,13988.06"/>
    </edge>
    <edge id="129833340#2" from="1354864" to="cluster_1142037858_1142037884_443339" priority="7" type="highway.secondary" spreadType="center" shape="12934.83,13948.43 12916.78,13951.72 12914.30,13952.25 12904.12,13952.20">
        <lane id="129833340#2_0" index="0" speed="13.89" length="57.02" shape="12932.38,13950.55 12917.08,13953.34 12914.47,13953.90 12882.42,13953.74"/>
        <lane id="129833340#2_1" index="1" speed="13.89" length="57.02" shape="12931.79,13947.31 12916.48,13950.10 12914.13,13950.60 12881.71,13950.44"/>
    </edge>