<?xml version="1.0" encoding="UTF-8"?>

<!-- generated on Mon Jan  6 16:19:03 2014 by SUMO netconvert Version 0.19.0
<?xml version="1.0" encoding="UTF-8"?>

<configuration xmlns:xsi="http://www.w3.org/2001/XMLSchema-instance" xsi:noNamespaceSchemaLocation="http://sumo-sim.org/xsd/netconvertConfiguration.xsd">

    <input>
        <sumo-net-file value="data/mapComplete.net.xml"/>
    </input>

    <output>
        <output-file value="net.net.xml"/>
    </output>

    <edge_removal>
        <keep-edges.in-boundary value="12343.43,13666.26,13592.34,14213.63"/>
    </edge_removal>

    <processing>
        <no-internal-links value="true"/>
        <no-turnarounds value="true"/>
        <offset.disable-normalization value="true"/>
    </processing>

</configuration>
-->

<net version="0.13" xmlns:xsi="http://www.w3.org/2001/XMLSchema-instance" xsi:noNamespaceSchemaLocation="http://sumo-sim.org/xsd/net_file.xsd">

    <location netOffset="-342498.94,-5630768.18" convBoundary="12237.25,13531.25,13652.66,14389.52" origBoundary="6.762104,50.772113,7.223816,51.127596" projParameter="+proj=utm +zone=32 +ellps=WGS84 +datum=WGS84 +units=m +no_defs"/>

    <edge id="-109063043" from="1354858" to="1352598" priority="4" type="highway.residential" shape="13388.77,13882.84 13386.89,13863.60 13386.66,13861.31 13383.04,13824.06 13382.01,13816.24">
        <lane id="-109063043_0" index="0" speed="13.89" length="66.95" shape="13386.55,13877.09 13385.25,13863.76 13385.02,13861.47 13381.40,13824.22 13380.77,13819.47"/>
    </edge>
    <edge id="-144935692#1" from="725152259" to="cluster_1584118476_359621" priority="7" type="highway.secondary" shape="12462.12,13718.78 12448.83,13712.68 12438.45,13706.31 12383.76,13658.36">
        <lane id="-144935692#1_0" index="0" speed="13.89" length="103.61" shape="12457.77,13722.23 12446.77,13717.18 12435.86,13710.53 12380.37,13661.97"/>
        <lane id="-144935692#1_1" index="1" speed="13.89" length="103.61" shape="12459.15,13719.23 12448.14,13714.18 12437.59,13707.72 12382.55,13659.49"/>
    </edge>
    <edge id="-144935692#2" from="359616" to="725152259" priority="7" type="highway.secondary">
        <lane id="-144935692#2_0" index="0" speed="13.89" length="173.81" shape="12617.65,13785.61 12463.42,13724.62"/>
        <lane id="-144935692#2_1" index="1" speed="13.89" length="173.81" shape="12618.86,13782.54 12464.63,13721.55"/>
    </edge>
    <edge id="-145261460" from="1352602" to="1352599" priority="4" type="highway.residential" shape="13205.54,13842.03 13219.96,13837.99 13239.04,13834.47 13256.72,13831.56 13294.75,13826.12">
        <lane id="-145261460_0" index="0" speed="8.33" length="90.71" shape="13205.09,13840.44 13219.51,13836.40 13238.74,13832.85 13256.45,13829.93 13291.39,13824.93"/>
    </edge>
    <edge id="-150031186" from="1352550" to="1672454814" priority="4" type="highway.residential" shape="12915.88,13619.83 13004.01,13641.74 13016.35,13645.09 13025.14,13647.88 13028.99,13651.07 13031.18,13656.13 13032.60,13664.02 13034.52,13671.26 13037.72,13675.30 13043.03,13679.75 13049.38,13686.23 13049.13,13687.64">
        <lane id="-150031186_0" index="0" speed="13.89" length="162.24" shape="12919.43,13619.01 13004.41,13640.14 13016.78,13643.50 13025.95,13646.40 13030.35,13650.05 13032.77,13655.65 13034.22,13663.73 13036.03,13670.50 13038.91,13674.14 13044.09,13678.49 13051.15,13685.68 13051.01,13686.46"/>
    </edge>
    <edge id="-154755071" from="1352612" to="1352610" priority="4" type="highway.residential">
        <lane id="-154755071_0" index="0" speed="13.89" length="105.73" shape="12843.89,13826.50 12852.75,13729.32"/>
    </edge>
    <edge id="-154755073#1" from="10989096" to="cluster_1352634_1352636_313719303_313719304_368859" priority="4" type="highway.residential" shape="12583.64,14041.86 12583.98,14027.27 12584.26,14015.24">
        <lane id="-154755073#1_0" index="0" speed="8.33" length="28.46" shape="12582.03,14040.24 12582.33,14027.23 12582.48,14021.01"/>
    </edge>
    <edge id="-154755073#2" from="10853913" to="10989096" priority="4" type="highway.residential">
        <lane id="-154755073#2_0" index="0" speed="8.33" length="83.39" shape="12575.90,14121.42 12581.54,14047.72"/>
    </edge>
    <edge id="-154755073#3" from="10924332" to="10853913" priority="4" type="highway.residential">
        <lane id="-154755073#3_0" index="0" speed="8.33" length="102.52" shape="12590.64,14226.67 12576.16,14128.68"/>
    </edge>
    <edge id="-154755082#1" from="10853912" to="cluster_313719301_368861" priority="4" type="highway.residential" shape="12386.48,14136.55 12384.26,14076.81 12382.75,14036.36 12382.28,14028.87">
        <lane id="-154755082#1_0" index="0" speed="13.89" length="111.35" shape="12384.71,14133.44 12382.61,14076.87 12381.10,14036.42 12380.93,14033.73"/>
    </edge>
    <edge id="-154755082#2" from="10854208" to="10853912" priority="4" type="highway.residential">
        <lane id="-154755082#2_0" index="0" speed="13.89" length="78.41" shape="12389.28,14214.92 12385.01,14139.73"/>
    </edge>
    <edge id="-154755095#0" from="1352550" to="1352542" priority="4" type="highway.residential" shape="12915.88,13619.83 12904.25,13666.54 12828.53,13652.89">
        <lane id="-154755095#0_0" index="0" speed="13.89" length="125.08" shape="12916.70,13623.38 12905.48,13668.44 12831.29,13655.06"/>
    </edge>
    <edge id="-154755102#2" from="1352608" to="1352544" priority="4" type="highway.residential" shape="13105.75,13864.09 13090.71,13863.94 13078.98,13863.88 12993.42,13864.69 12980.47,13863.74 12972.11,13861.70 12963.98,13860.23">
        <lane id="-154755102#2_0" index="0" speed="13.89" length="142.19" shape="13100.94,13865.69 13090.69,13865.59 13078.97,13865.53 12993.44,13866.34 12980.35,13865.39 12971.72,13863.30 12967.70,13862.58"/>
    </edge>
    <edge id="-165511531#0" from="1352591" to="1352592" priority="4" type="highway.residential" shape="13140.38,13671.82 13126.12,13662.83 13120.48,13657.77 13117.82,13652.83 13115.59,13640.83 13116.95,13629.43">
        <lane id="-165511531#0_0" index="0" speed="13.89" length="53.73" shape="13134.60,13670.13 13125.24,13664.23 13119.16,13658.81 13116.24,13653.39 13113.92,13640.88 13115.31,13629.23"/>
    </edge>
    <edge id="-165511531#1" from="cluster_1352589_1672454812" to="1352591" priority="4" type="highway.residential" shape="13159.51,13682.52 13140.38,13671.82">
        <lane id="-165511531#1_0" index="0" speed="13.89" length="23.72" shape="13151.99,13680.20 13140.96,13674.03"/>
    </edge>
    <edge id="-165515969#3" from="cluster_1352552_1672454737" to="cluster_1770563573_354673595" priority="15" type="highway.service|railway.tram" shape="12936.48,13537.00 12971.91,13572.63 13008.85,13607.90 13019.51,13616.83 13029.63,13622.40 13038.11,13624.54 13048.57,13626.20 13062.72,13627.03 13083.50,13627.46 13094.98,13632.66 13101.45,13637.39 13110.40,13651.02 13112.71,13660.45 13113.36,13673.99 13113.55,13681.19 13112.98,13692.32">
        <lane id="-165515969#3_0" index="0" speed="27.78" length="273.39" shape="12936.84,13535.02 12973.08,13571.47 13009.99,13606.71 13020.45,13615.46 13030.24,13620.85 13038.51,13622.94 13048.83,13624.57 13062.82,13625.38 13083.87,13625.82 13095.82,13631.23 13102.67,13636.23 13111.94,13650.35 13114.35,13660.21 13115.01,13673.91 13115.17,13680.09"/>
    </edge>
    <edge id="-165515970#1" from="1352602" to="673482273" priority="4" type="highway.residential" shape="13205.54,13842.03 13190.06,13846.62 13181.42,13850.21 13171.37,13855.98 13162.80,13861.79">
        <lane id="-165515970#1_0" index="0" speed="13.89" length="47.44" shape="13206.01,13843.61 13190.53,13848.20 13182.05,13851.73 13172.19,13857.41 13170.26,13858.72"/>
    </edge>
    <edge id="-167324659" from="cluster_26538293_359615" to="359616" priority="7" type="highway.secondary" shape="12699.74,13811.39 12689.80,13809.30 12623.75,13782.70">
        <lane id="-167324659_0" index="0" speed="13.89" length="85.61" shape="12694.20,13815.28 12688.36,13814.05 12626.16,13789.01"/>
        <lane id="-167324659_1" index="1" speed="13.89" length="85.61" shape="12694.88,13812.05 12689.32,13810.88 12627.39,13785.95"/>
    </edge>
    <edge id="-175607927#0" from="257894366" to="25630646" priority="4" type="highway.residential" shape="13641.96,14194.32 13617.70,14196.73 13500.29,14212.00">
        <lane id="-175607927#0_0" index="0" speed="13.89" length="142.78" shape="13642.12,14195.96 13617.86,14198.37 13505.81,14212.95"/>
    </edge>
    <edge id="-186463490#0" from="1352612" to="1352541" priority="4" type="highway.residential">
        <lane id="-186463490#0_0" index="0" speed="13.89" length="52.69" shape="12839.97,13832.48 12795.91,13826.05"/>
    </edge>
    <edge id="-186463490#1" from="1352544" to="1352612" priority="4" type="highway.residential" shape="12963.98,13860.23 12877.00,13836.95 12845.09,13831.56">
        <lane id="-186463490#1_0" index="0" speed="13.89" length="122.40" shape="12960.17,13860.92 12876.57,13838.54 12849.26,13833.94"/>
    </edge>
    <edge id="-198147972" from="1352615" to="1352542" priority="4" type="highway.residential">
        <lane id="-198147972_0" index="0" speed="13.89" length="67.06" shape="12812.72,13714.78 12826.23,13655.55"/>
    </edge>
    <edge id="-205044667" from="295804475" to="57354649" priority="4" type="highway.residential" shape="13155.84,14024.45 13161.21,14018.82 13168.85,14012.40">
        <lane id="-205044667_0" index="0" speed="13.89" length="21.40" shape="13156.22,14021.66 13160.02,14017.68 13170.37,14008.96"/>
    </edge>
    <edge id="-23015531#2" from="831212699" to="1352594" priority="4" type="highway.residential" shape="13353.42,13702.28 13320.81,13692.30 13315.82,13691.03 13281.46,13682.19">
        <lane id="-23015531#2_0" index="0" speed="13.89" length="74.73" shape="13348.68,13702.56 13320.33,13693.88 13315.41,13692.63 13285.28,13684.88"/>
    </edge>
    <edge id="-23015533" from="245904979" to="248145529" priority="4" type="highway.residential">
        <lane id="-23015533_0" index="0" speed="13.89" length="110.79" shape="13435.12,13603.40 13431.66,13708.94"/>
    </edge>
    <edge id="-23471151#0" from="cluster_1142037858_1142037884_443339" to="54747466" priority="15" type="highway.service|railway.tram" shape="12906.09,13942.44 12873.94,13948.71">
        <lane id="-23471151#0_0" index="0" speed="27.78" length="72.80" shape="12878.29,13949.54 12865.24,13952.09"/>
    </edge>
    <edge id="-23471151#2" from="644599999" to="cluster_1142037858_1142037884_443339" priority="15" type="highway.service|railway.tram" shape="13051.31,13937.62 13016.02,13937.87 12946.69,13936.31 12915.07,13941.32 12906.09,13942.44">
        <lane id="-23471151#2_0" index="0" speed="27.78" length="172.89" shape="13048.12,13939.29 13016.03,13939.52 12946.80,13937.96 12915.33,13942.95 12881.01,13947.23"/>
    </edge>
    <edge id="-27602630#1" from="cluster_272821756_443859" to="644599999" priority="15" type="highway.service|railway.tram" shape="13171.67,13932.89 13151.43,13934.85 13139.56,13935.45 13115.96,13936.85 13097.25,13937.83 13081.44,13937.74 13051.31,13937.62">
        <lane id="-27602630#1_0" index="0" speed="27.78" length="125.61" shape="13165.75,13935.12 13151.59,13936.49 13139.64,13937.10 13116.06,13938.50 13097.34,13939.48 13081.43,13939.39 13054.47,13939.28"/>
    </edge>
    <edge id="-27602630#3" from="254414030" to="cluster_272821756_443859" priority="15" type="highway.service|railway.tram" shape="13194.29,13930.86 13181.83,13931.91 13171.67,13932.89">
        <lane id="-27602630#3_0" index="0" speed="27.78" length="27.79" shape="13189.17,13932.95 13181.97,13933.55 13176.24,13934.11"/>
    </edge>
    <edge id="-28523795" from="368854" to="359611" priority="9" type="highway.primary" shape="12237.25,13762.50 12239.19,13755.80 12248.50,13742.54 12300.82,13694.14 12361.38,13638.61">
        <lane id="-28523795_0" index="0" speed="13.89" length="192.02" shape="12234.07,13755.69 12234.66,13753.63 12244.75,13739.26 12297.46,13690.51 12351.36,13641.08"/>
        <lane id="-28523795_1" index="1" speed="13.89" length="192.02" shape="12237.24,13756.61 12237.68,13755.08 12247.25,13741.45 12299.70,13692.93 12353.59,13643.51"/>
    </edge>
    <edge id="-29206900" from="cluster_25630644_287369971" to="25630640" priority="4" type="highway.residential" shape="13308.87,14209.04 13305.27,14172.45 13303.16,14133.08">
        <lane id="-29206900_0" index="0" speed="8.33" length="79.62" shape="13307.56,14212.61 13303.63,14172.61 13301.69,14136.45"/>
    </edge>
    <edge id="-29214406" from="25630646" to="cluster_25630718_376489851" priority="4" type="highway.residential" shape="13500.29,14212.00 13502.88,14220.41 13508.29,14237.93 13512.97,14266.40 13513.45,14287.61 13513.16,14290.20 13509.00,14328.42 13508.69,14335.16 13508.59,14336.91 13508.54,14339.72 13508.40,14346.80 13507.92,14370.78 13507.68,14384.90">
        <lane id="-29214406_0" index="0" speed="13.89" length="179.38" shape="13503.44,14216.63 13504.46,14219.92 13509.87,14237.44 13514.60,14266.13 13515.10,14287.57 13514.80,14290.38 13510.64,14328.60 13510.34,14335.24 13510.24,14337.00 13510.19,14339.75 13510.05,14346.83 13509.57,14370.81 13509.25,14389.55"/>
    </edge>
    <edge id="-4400309" from="25630685" to="25630652" priority="4" type="highway.residential">
        <lane id="-4400309_0" index="0" speed="13.89" length="42.73" shape="13476.78,14108.03 13471.26,14078.94"/>
    </edge>
    <edge id="-55940134" from="1352541" to="cluster_26538293_359615" priority="4" type="highway.residential" shape="12792.95,13823.95 12750.09,13817.90 12708.03,13813.21">
        <lane id="-55940134_0" index="0" speed="13.89" length="89.84" shape="12789.79,13825.17 12749.86,13819.53 12712.99,13815.42"/>
    </edge>
    <edge id="-69366482#2" from="248145529" to="831212705" priority="4" type="highway.residential" shape="13429.84,13714.08 13407.75,13710.48 13376.30,13705.37 13366.43,13703.77">
        <lane id="-69366482#2_0" index="0" speed="13.89" length="64.24" shape="13424.44,13714.87 13407.48,13712.11 13376.04,13707.00 13370.38,13706.08"/>
    </edge>
    <edge id="-79689707" from="1352586" to="406386655" priority="4" type="highway.residential">
        <lane id="-79689707_0" index="0" speed="13.89" length="104.31" shape="13189.26,13572.90 13177.10,13676.50"/>
    </edge>
    <edge id="-8096211#1" from="1352608" to="443341" priority="15" type="highway.residential|railway.tram" shape="13105.75,13864.09 13105.03,13895.36 13103.82,13929.16">
        <lane id="-8096211#1_0" index="0" speed="27.78" length="65.10" shape="13107.29,13868.92 13106.68,13895.40 13105.65,13924.09"/>
    </edge>
    <edge id="-8225101" from="673482273" to="1352608" priority="4" type="highway.residential" shape="13162.80,13861.79 13158.65,13863.68 13154.79,13864.59 13146.66,13865.38 13140.41,13865.18 13105.75,13864.09">
        <lane id="-8225101_0" index="0" speed="13.89" length="57.62" shape="13157.47,13865.65 13155.17,13866.20 13146.82,13867.02 13140.36,13866.83 13110.47,13865.89"/>
    </edge>
    <edge id="-8225106" from="831212700" to="1352623" priority="4" type="highway.residential" shape="13359.48,13697.00 13366.99,13583.25 13367.75,13578.45">
        <lane id="-8225106_0" index="0" speed="8.33" length="118.86" shape="13358.13,13692.40 13365.34,13583.14 13366.12,13578.19"/>
    </edge>
    <edge id="-8225109#2" from="1352594" to="cluster_1352589_1672454812" priority="4" type="highway.residential" shape="13281.46,13682.19 13180.98,13685.25 13169.19,13684.95 13162.87,13683.80">
        <lane id="-8225109#2_0" index="0" speed="13.89" length="120.54" shape="13278.08,13683.94 13181.03,13686.90 13169.15,13686.60 13167.89,13686.38"/>
    </edge>
    <edge id="-83823403#2" from="cluster_245902761_673956806" to="248145529" priority="4" type="highway.residential" shape="13611.22,13715.15 13575.84,13717.69 13567.84,13718.58 13561.01,13718.88 13539.92,13719.52 13529.30,13719.65 13467.07,13715.66 13440.96,13715.00 13437.47,13714.70 13429.84,13714.08">
        <lane id="-83823403#2_0" index="0" speed="13.89" length="184.87" shape="13614.49,13716.57 13575.96,13719.34 13568.02,13720.22 13561.08,13720.53 13539.97,13721.17 13529.32,13721.30 13466.96,13717.31 13440.92,13716.65 13437.33,13716.34 13434.29,13716.10"/>
    </edge>
    <edge id="-85414282#1" from="1352598" to="831212712" priority="4" type="highway.residential" shape="13382.01,13816.24 13377.92,13788.27 13363.51,13727.67 13360.21,13710.13">
        <lane id="-85414282#1_0" index="0" speed="8.33" length="108.40" shape="13379.91,13813.31 13376.29,13788.51 13361.90,13728.05 13359.40,13714.77"/>
    </edge>
    <edge id="122989592#2" from="1672454856" to="673482354" priority="7" type="highway.secondary" spreadType="center">
        <lane id="122989592#2_0" index="0" speed="8.33" length="74.34" shape="13292.08,13993.94 13235.24,14002.56"/>
        <lane id="122989592#2_1" index="1" speed="8.33" length="74.34" shape="13291.59,13990.68 13234.75,13999.29"/>
        <lane id="122989592#2_2" index="2" speed="8.33" length="74.34" shape="13291.09,13987.42 13234.26,13996.03"/>
    </edge>
    <edge id="129833339#1" from="1672454852" to="1431777705" priority="7" type="highway.secondary" spreadType="center" shape="12806.35,13982.95 12803.99,13983.29 12786.65,13986.20 12765.26,13989.94">
        <lane id="129833339#1_0" index="0" speed="13.89" length="41.68" shape="12804.23,13984.92 12786.92,13987.83 12767.01,13991.31"/>
        <lane id="129833339#1_1" index="1" speed="13.89" length="41.68" shape="12803.76,13981.66 12786.38,13984.57 12766.44,13988.06"/>
    </edge>
    <edge id="129833340#2" from="1354864" to="cluster_1142037858_1142037884_443339" priority="7" type="highway.secondary" spreadType="center" shape="12934.83,13948.43 12916.78,13951.72 12914.30,13952.25 12904.12,13952.20">
        <lane id="129833340#2_0" index="0" speed="13.89" length="57.02" shape="12932.38,13950.55 12917.08,13953.34 12914.47,13953.90 12882.42,13953.74"/>
        <lane id="129833340#2_1" index="1" speed="13.89" length="57.02" shape="12931.79,13947.31 12916.48,13950.10 12914.13,13950.60 12881.71,13950.44"/>
    </edge>
    <edge id="129833341#0" from="cluster_1142037858_1142037884_443339" to="1672454852" priority="7" type="highway.secondary" spreadType="center" shape="12904.12,13952.20 12889.43,13952.33 12872.52,13955.51 12867.24,13956.50 12850.31,13962.38 12836.38,13968.15 12813.93,13980.68 12806.35,13982.95">
        <lane id="129833341#0_0" index="0" speed="13.89" length="129.85" shape="12882.75,13955.27 12872.82,13957.13 12867.54,13958.12 12850.85,13963.94 12837.01,13969.67 12814.58,13982.21 12810.06,13983.56"/>
        <lane id="129833341#0_1" index="1" speed="13.89" length="129.85" shape="12882.05,13952.04 12872.22,13953.89 12866.94,13954.88 12849.77,13960.82 12835.75,13966.63 12813.28,13979.15 12809.12,13980.40"/>
    </edge>
    <edge id="129833347#0" from="1431777705" to="26721461" priority="7" type="highway.secondary" spreadType="center" shape="12765.26,13989.94 12705.47,14001.63 12701.06,14002.45 12697.86,14003.11 12693.50,14004.04">
        <lane id="129833347#0_0" index="0" speed="13.89" length="73.13" shape="12764.11,13991.85 12705.79,14003.25 12701.36,14004.07 12699.09,14004.54"/>
        <lane id="129833347#0_1" index="1" speed="13.89" length="73.13" shape="12763.48,13988.61 12705.15,14000.01 12700.76,14000.83 12698.40,14001.31"/>
    </edge>
    <edge id="129833348#0" from="1431777705" to="1431777747" priority="7" type="highway.secondary" spreadType="center" shape="12765.26,13989.94 12742.74,13998.35 12738.48,14001.29 12720.71,14007.36 12702.01,14014.70 12699.32,14016.14 12694.77,14018.57">
        <lane id="129833348#0_0" index="0" speed="13.89" length="76.29" shape="12763.85,13990.47 12742.74,13998.35 12738.48,14001.29 12720.71,14007.36 12702.01,14014.70 12699.82,14015.87"/>
    </edge>
    <edge id="129861628#0" from="cluster_1438375577_14593395" to="1354864" priority="4" type="highway.residential" spreadType="center" shape="12924.52,14051.69 12925.45,14037.55 12929.74,14008.12 12930.54,14002.64 12931.88,13993.48 12932.13,13991.80 12932.46,13989.53 12934.85,13976.11 12936.25,13969.47 12937.29,13961.76 12936.56,13954.53 12934.83,13948.43">
        <lane id="129861628#0_0" index="0" speed="13.89" length="107.21" shape="12924.72,14048.69 12925.45,14037.55 12929.74,14008.12 12930.54,14002.64 12931.88,13993.48 12932.13,13991.80 12932.46,13989.53 12934.85,13976.11 12936.25,13969.47 12937.29,13961.76 12936.56,13954.53 12936.16,13953.13"/>
    </edge>
    <edge id="130659365" from="cluster_1438375577_14593395" to="644600000" priority="4" type="highway.residential" spreadType="center" shape="12924.42,14057.12 12966.40,14056.36 12990.33,14055.14 13007.62,14053.41 13040.88,14050.06 13050.60,13955.25 13051.08,13946.83">
        <lane id="130659365_0" index="0" speed="13.89" length="223.21" shape="12927.53,14057.06 12966.40,14056.36 12990.33,14055.14 13007.62,14053.41 13040.88,14050.06 13050.60,13955.25 13050.81,13951.65"/>
    </edge>
    <edge id="130875842" from="25630563" to="cluster_1578199924_25630558_25630988" priority="4" type="highway.residential" spreadType="center" shape="13124.16,14149.53 13123.22,14214.61">
        <lane id="130875842_0" index="0" speed="13.89" length="81.21" shape="13124.11,14152.69 13122.99,14230.73"/>
    </edge>
    <edge id="130997388#0" from="25630564" to="cluster_1438375577_14593395" priority="4" type="highway.residential" spreadType="center" shape="12926.65,14153.89 12925.74,14114.82 12925.52,14107.95 12925.50,14102.51 12924.42,14057.12">
        <lane id="130997388#0_0" index="0" speed="13.89" length="99.52" shape="12926.58,14150.81 12925.74,14114.82 12925.52,14107.95 12925.50,14102.51 12924.49,14060.23"/>
    </edge>
    <edge id="131651824" from="cluster_257899743_257899744_257900047" to="25630564" priority="4" type="highway.residential" spreadType="center" shape="12922.91,14205.37 12924.89,14177.56 12926.65,14153.89">
        <lane id="131651824_0" index="0" speed="13.89" length="61.03" shape="12922.29,14214.14 12924.89,14177.56 12926.43,14156.85"/>
    </edge>
    <edge id="144935690" from="cluster_1584118476_359621" to="1584118502" priority="4" type="highway.residential" spreadType="center" shape="12383.76,13658.36 12372.28,13662.72 12368.91,13665.42 12363.37,13670.72">
        <lane id="144935690_0" index="0" speed="13.89" length="28.34" shape="12376.22,13661.22 12372.28,13662.72 12368.91,13665.42 12366.86,13667.39"/>
    </edge>
    <edge id="144935692#0" from="cluster_1584118476_359621" to="725152259" priority="7" type="highway.secondary" shape="12383.76,13658.36 12438.45,13706.31 12448.83,13712.68 12462.12,13718.78">
        <lane id="144935692#0_0" index="0" speed="13.89" length="103.61" shape="12386.90,13654.53 12441.71,13702.59 12451.42,13708.46 12461.90,13713.24"/>
        <lane id="144935692#0_1" index="1" speed="13.89" length="103.61" shape="12384.72,13657.01 12439.54,13705.07 12449.69,13711.27 12460.52,13716.23"/>
    </edge>
    <edge id="144935692#2" from="725152259" to="359616" priority="7" type="highway.secondary">
        <lane id="144935692#2_0" index="0" speed="13.89" length="173.81" shape="12467.06,13715.41 12621.29,13776.40"/>
        <lane id="144935692#2_1" index="1" speed="13.89" length="173.81" shape="12465.84,13718.48 12620.08,13779.47"/>
    </edge>
    <edge id="145261451" from="1354885" to="673482273" priority="4" type="highway.residential" spreadType="center" shape="13163.14,13774.92 13162.29,13815.65 13162.83,13833.35 13163.44,13843.64 13162.80,13861.79">
        <lane id="145261451_0" index="0" speed="13.89" length="86.92" shape="13164.72,13778.23 13163.94,13815.68 13164.48,13833.30 13165.09,13843.54 13164.72,13853.95"/>
        <lane id="145261451_1" index="1" speed="13.89" length="86.92" shape="13161.42,13778.16 13160.64,13815.62 13161.18,13833.40 13161.79,13843.74 13161.43,13853.84"/>
    </edge>
    <edge id="145474195#0" from="cluster_26721448_354652758_354652759_359975" to="cluster_26538293_359615" priority="9" type="highway.primary" spreadType="center" shape="12690.05,13897.46 12690.58,13889.32 12699.74,13811.39">
        <lane id="145474195#0_0" index="0" speed="13.89" length="100.75" shape="12688.08,13902.26 12688.93,13889.21 12697.20,13818.89"/>
        <lane id="145474195#0_1" index="1" speed="13.89" length="100.75" shape="12691.38,13902.47 12692.23,13889.43 12700.48,13819.19"/>
    </edge>
    <edge id="145474196#1" from="cluster_26721448_354652758_354652759_359975" to="354652760" priority="9" type="highway.primary" spreadType="center" shape="12699.09,13906.45 12695.57,13943.97 12693.82,13963.45 12693.27,13991.36 12693.19,13995.78">
        <lane id="145474196#1_0" index="0" speed="13.89" length="94.12" shape="12700.36,13910.61 12697.21,13944.12 12695.46,13963.60 12694.92,13991.39 12694.92,13991.64"/>
        <lane id="145474196#1_1" index="1" speed="13.89" length="94.12" shape="12697.07,13910.31 12693.93,13943.82 12692.18,13963.30 12691.62,13991.33 12691.62,13991.58"/>
    </edge>
    <edge id="145474196#4" from="354652760" to="26721461" priority="9" type="highway.primary" spreadType="center">
        <lane id="145474196#4_0" index="0" speed="13.89" length="8.27" shape="12694.95,13998.62 12694.96,13998.82"/>
        <lane id="145474196#4_1" index="1" speed="13.89" length="8.27" shape="12691.65,13998.74 12691.66,13998.94"/>
    </edge>
    <edge id="150031203" from="cluster_26538293_359615" to="26721449" priority="9" type="highway.primary" spreadType="center" shape="12708.03,13813.21 12702.42,13874.37">
        <lane id="150031203_0" index="0" speed="13.89" length="71.96" shape="12709.07,13819.98 12704.01,13875.06"/>
        <lane id="150031203_1" index="1" speed="13.89" length="71.96" shape="12705.78,13819.68 12700.73,13874.75"/>
    </edge>
    <edge id="150031205#0" from="367149" to="354652761" priority="9" type="highway.primary" spreadType="center">
        <lane id="150031205#0_0" index="0" speed="13.89" length="9.54" shape="12680.71,14002.60 12680.72,14002.40"/>
        <lane id="150031205#0_1" index="1" speed="13.89" length="9.54" shape="12684.01,14002.70 12684.02,14002.50"/>
    </edge>
    <edge id="150031205#1" from="354652761" to="cluster_26721448_354652758_354652759_359975" priority="9" type="highway.primary" spreadType="center" shape="12682.51,13997.78 12683.41,13962.86 12689.60,13906.57">
        <lane id="150031205#1_0" index="0" speed="13.89" length="96.52" shape="12680.96,13993.91 12681.76,13962.82 12687.63,13909.42"/>
        <lane id="150031205#1_1" index="1" speed="13.89" length="96.52" shape="12684.26,13993.99 12685.06,13962.90 12690.91,13909.73"/>
    </edge>
    <edge id="150031207#1" from="cluster_1142037858_1142037884_443339" to="474558285" priority="7" type="highway.secondary" spreadType="center" shape="12878.10,13940.84 12912.98,13933.22 12919.25,13932.09 12938.07,13931.51 12957.76,13931.64">
        <lane id="150031207#1_0" index="0" speed="13.89" length="85.27" shape="12879.21,13938.91 12912.63,13931.61 12918.96,13930.47 12938.02,13929.86 12954.58,13929.97"/>
        <lane id="150031207#1_1" index="1" speed="13.89" length="85.27" shape="12879.91,13942.13 12913.33,13934.83 12919.54,13933.71 12938.12,13933.16 12954.56,13933.27"/>
    </edge>
    <edge id="150031207#4" from="474558285" to="644599998" priority="7" type="highway.secondary" spreadType="center" shape="12957.76,13931.64 13020.03,13931.63 13041.95,13930.49 13051.49,13930.35">
        <lane id="150031207#4_0" index="0" speed="13.89" length="93.76" shape="12960.80,13929.99 13020.03,13929.98 13041.86,13928.84 13048.24,13928.75"/>
        <lane id="150031207#4_1" index="1" speed="13.89" length="93.76" shape="12960.80,13933.29 13020.03,13933.28 13042.04,13932.14 13048.29,13932.05"/>
    </edge>
    <edge id="150031207#6" from="644599998" to="443341" priority="7" type="highway.secondary" spreadType="center" shape="13051.49,13930.35 13088.27,13929.24 13103.82,13929.16">
        <lane id="150031207#6_0" index="0" speed="13.89" length="52.35" shape="13054.36,13928.61 13088.22,13927.59 13099.19,13927.53"/>
        <lane id="150031207#6_1" index="1" speed="13.89" length="52.35" shape="13054.46,13931.91 13088.32,13930.89 13099.21,13930.83"/>
    </edge>
    <edge id="150031207#8" from="443341" to="cluster_272821756_443859" priority="7" type="highway.secondary" spreadType="center" shape="13103.82,13929.16 13156.92,13925.22 13168.67,13923.18">
        <lane id="150031207#8_0" index="0" speed="13.89" length="70.26" shape="13108.81,13927.14 13156.80,13923.57 13172.84,13920.78"/>
        <lane id="150031207#8_1" index="1" speed="13.89" length="70.26" shape="13109.06,13930.43 13157.04,13926.87 13172.84,13924.13"/>
    </edge>
    <edge id="150031227" from="26721449" to="443336" priority="6" type="highway.secondary_link" spreadType="center" shape="12702.42,13874.37 12707.95,13884.76 12719.78,13896.62">
        <lane id="150031227_0" index="0" speed="13.89" length="34.83" shape="12707.05,13883.07 12707.95,13884.76 12714.56,13891.39"/>
    </edge>
    <edge id="150031230#1" from="cluster_26721448_354652758_354652759_359975" to="443336" priority="7" type="highway.secondary" spreadType="center" shape="12700.42,13897.39 12719.78,13896.62">
        <lane id="150031230#1_0" index="0" speed="13.89" length="30.00" shape="12700.35,13895.74 12713.05,13895.24"/>
        <lane id="150031230#1_1" index="1" speed="13.89" length="30.00" shape="12700.49,13899.04 12713.18,13898.53"/>
    </edge>
    <edge id="150031230#2" from="443336" to="cluster_1142037858_1142037884_443339" priority="7" type="highway.secondary" spreadType="center" shape="12719.78,13896.62 12734.02,13898.45 12737.76,13899.05 12744.96,13900.66 12750.26,13902.94 12759.31,13907.63 12764.53,13911.51 12782.15,13925.39 12798.40,13938.58 12803.18,13942.19 12805.86,13944.32 12810.78,13946.35 12818.51,13948.08 12826.44,13947.89 12878.10,13940.84">