<?xml version="1.0" encoding="UTF-8"?>

<!-- generated on Fri Feb  7 14:01:41 2014 by SUMO duarouter Version 0.19.0
<?xml version="1.0" encoding="UTF-8"?>

<configuration xmlns:xsi="http://www.w3.org/2001/XMLSchema-instance" xsi:noNamespaceSchemaLocation="http://sumo-sim.org/xsd/duarouterConfiguration.xsd">

    <input>
        <net-file value="data/map.net.xml"/>
        <trip-files value="data/map.alltrips.xml"/>
    </input>

    <output>
        <output-file value="data/map.rou.xml"/>
    </output>

</configuration>
-->

<routes xmlns:xsi="http://www.w3.org/2001/XMLSchema-instance" xsi:noNamespaceSchemaLocation="http://sumo-sim.org/xsd/routes_file.xsd">
    <vehicle id="100948_100948_396" depart="25200.00">
        <route edges="154743410#2 9207798"/>
    </vehicle>
    <vehicle id="102010_102010_396" depart="25200.00">
        <route edges="145474195#0 -167324659 167324659"/>
    </vehicle>
    <vehicle id="102085_102085_396" depart="25200.00">
        <route edges="154743410#2 9207798"/>
    </vehicle>
    <vehicle id="102385_102385_396" depart="25200.00">
        <route edges="154743410#0 154743410#1 154743410#2 9207798"/>
    </vehicle>
    <vehicle id="103148_103148_397" depart="25200.00">
        <route edges="150031205#1 28557537#6 23471151#0 23471151#1 50628731#1 150031207#6 8096211#0 26519352#0 8096212#1 165511531#1 8225109#0 23015531#0 69366484#2 69366484#3 69366482#0 -69366482#2"/>
    </vehicle>
    <vehicle id="103997_103997_397" depart="25200.00">
        <route edges="145474195#0 4380937#0 4380937#2 150031262#0 145575263"/>
    </vehicle>
    <vehicle id="104291_104291_397" depart="25200.00">
        <route edges="154743410#1 154743410#2 9207798"/>
    </vehicle>
    <vehicle id="104464_104464_397" depart="25200.00">
        <route edges="154743410#1 154743410#2 9207798"/>
    </vehicle>
    <vehicle id="104593_104593_397" depart="25200.00">
        <route edges="154743410#1 154743410#2 9207798"/>
    </vehicle>
    <vehicle id="105046_105046_398" depart="25200.00">
        <route edges="36454807#3-AddedOnRampEdge 36454807#3 150031205#0 23471158#6 23471158#9"/>
    </vehicle>
    <vehicle id="105374_105374_398" depart="25200.00">
        <route edges="185767958#1 36454807#0 36454807#1 36454807#3-AddedOnRampEdge 36454807#3 150031205#0 150031205#1 145474195#0 4380937#0 4380937#2 150031262#0 -27290012#2 4390554#1 5667168#0 4390557#1"/>
    </vehicle>
    <vehicle id="106312_106312_399" depart="25200.00">
        <route edges="154743410#1 154743410#2 9207798"/>
    </vehicle>
    <vehicle id="106411_106411_399" depart="25200.00">
        <route edges="154743410#2 9207798"/>
    </vehicle>
    <vehicle id="106412_106412_399" depart="25200.00">
        <route edges="4380937#0 4380937#2 150031262#0 145575263"/>
    </vehicle>
    <vehicle id="106491_106491_399" depart="25200.00">
        <route edges="185767958#1 36454807#0 36454807#1 36454807#3-AddedOnRampEdge 36454807#3 150031205#0 150031205#1 145474195#0 4380937#0 4380937#2 150031262#0 145575263"/>
    </vehicle>
    <vehicle id="106590_106590_399" depart="25200.00">
        <route edges="154743410#0 154743410#1 154743410#2 9207798"/>
    </vehicle>
    <vehicle id="106716_106716_399" depart="25200.00">
        <route edges="185767958#1 36454807#0 36454807#1 36454807#3-AddedOnRampEdge 36454807#3 150031205#0 150031205#1 145474195#0 4380937#0 4380937#2 150031262#0 -27290012#2 4390554#1 5667168#0 4390557#1"/>
    </vehicle>
    <vehicle id="106717_106717_399" depart="25200.00">
        <route edges="-154755100#1 -154755100#0"/>
    </vehicle>
    <vehicle id="106746_106746_399" depart="25200.00">
        <route edges="180723491 154743410#0"/>
    </vehicle>
    <vehicle id="107967_107967_400" depart="25200.00">
        <route edges="36454807#3 150031205#0 150031205#1 145474195#0 4380937#0 4380937#2 150031262#0 -27290012#2 4390554#1 29217219#0 29217219#1"/>
    </vehicle>
    <vehicle id="108411_108411_400" depart="25200.00">
        <route edges="154743410#2 185767958#1 36454807#0 36454807#1 36454807#3-AddedOnRampEdge 36454807#3 150031205#0 150031205#1 145474195#0 4380937#0 4380937#2 150031262#0 145575263"/>
    </vehicle>
    <vehicle id="108755_108755_400" depart="25200.00">
        <route edges="4380937#0 4380937#2 150031262#0 145575263"/>
    </vehicle>
    <vehicle id="109590_109590_401" depart="25200.00">
        <route edges="150031205#1 145474195#0 4380937#0 4380937#2 150031262#0 145575263"/>
    </vehicle>
    <vehicle id="109689_109689_401" depart="25200.00">
        <route edges="154743410#2 9207798"/>
    </vehicle>
    <vehicle id="110131_110131_401" depart="25200.00">
        <route edges="185767958#1 36454807#0 36454807#1 36454807#3-AddedOnRampEdge 36454807#3 150031205#0 150031205#1 145474195#0 -167324659 -144935692#2 -144935692#1"/>
    </vehicle>
    <vehicle id="110373_110373_401" depart="25200.00">
        <route edges="154743410#1 154743410#2 185767958#1 36454807#0 36454807#1 36454807#3-AddedOnRampEdge 36454807#3 150031205#0 150031205#1 145474195#0 4380937#0 4380937#2 150031262#0 145575263"/>
    </vehicle>
    <vehicle id="111702_111702_401" depart="25200.00">
        <route edges="185767958#1 36454807#0 36454807#1 36454807#3-AddedOnRampEdge 36454807#3 150031205#0 150031205#1 28557537#6 23471151#0 23471151#1 23471151#3 23493261#0 28542995#0 28542995#2 28542995#4 23493260#0 23493260#4 23493260#7"/>
    </vehicle>
    <vehicle id="111824_111824_401" depart="25200.00">
        <route edges="154743410#0 154743410#1 154755090#1 187965761#0"/>
    </vehicle>
    <vehicle id="112729_112729_402" depart="25200.00">
        <route edges="154743410#2 9207798"/>
    </vehicle>
    <vehicle id="113586_113586_402" depart="25200.00">
        <route edges="154743410#1 154743410#2 185767958#1 36454807#0 36454807#1 36454807#3-AddedOnRampEdge 36454807#3 150031205#0 150031205#1 145474195#0 4380937#0 4380937#2 150031262#0 145575263"/>
    </vehicle>
    <vehicle id="113896_113896_402" depart="25200.00">
        <route edges="4380937#0 4380937#2 150031262#0 145575263"/>
    </vehicle>
    <vehicle id="114233_114233_402" depart="25200.00">
        <route edges="154743410#1 154743410#2 9207798"/>
    </vehicle>
    <vehicle id="114306_114306_402" depart="25200.00">
        <route edges="36564599"/>
    </vehicle>
    <vehicle id="114868_114868_403" depart="25200.00">
        <route edges="185767958#1 36454807#0 36454807#1 36454807#3-AddedOnRampEdge 36454807#3 150031205#0 150031205#1 145474195#0 4380937#0 4380937#2 150031262#0 145575263"/>
    </vehicle>
    <vehicle id="115398_115398_403" depart="25200.00">
        <route edges="185767958#1 36454807#0 36454807#1 36454807#3-AddedOnRampEdge 36454807#3 150031205#0 23471158#6 23471158#9"/>
    </vehicle>
    <vehicle id="116049_116049_403" depart="25200.00">
        <route edges="150031205#1 145474195#0 4380937#0 4380937#2 150031262#0 145575263"/>
    </vehicle>
    <vehicle id="116097_116097_403" depart="25200.00">
        <route edges="185767958#1 36454807#0 36454807#1 36454807#3-AddedOnRampEdge 36454807#3 150031205#0 150031205#1 145474195#0 4380937#0 4380937#2 150031262#0 145575263"/>
    </vehicle>
    <vehicle id="116728_116728_404" depart="25200.00">
        <route edges="150031205#1 145474195#0 4380937#0 4380937#2 150031262#0 145575263"/>
    </vehicle>
    <vehicle id="116829_116829_404" depart="25200.00">
        <route edges="4380937#2 150031262#0 145575263"/>
    </vehicle>
    <vehicle id="117072_117072_404" depart="25200.00">
        <route edges="185767958#1 36590979#0 36590979#0-AddedOffRampEdge"/>
    </vehicle>
    <vehicle id="117439_117439_404" depart="25200.00">
        <route edges="185767958#1 36454807#0 36454807#1 36454807#3-AddedOnRampEdge 36454807#3 150031205#0 150031205#1 28557537#6 23471151#0 23471151#1 50628731#1 150031207#6 8096211#0 26519352#0 165515969#0 51534019#0"/>
    </vehicle>
    <vehicle id="118860_118860_405" depart="25200.00">
        <route edges="28557537#6 23471151#0 129833341#0 154755117 23800664 130659365"/>
    </vehicle>
    <vehicle id="119400_119400_405" depart="25200.00">
        <route edges="154743410#1 154755090#1 187965761#0"/>
    </vehicle>
    <vehicle id="119651_119651_405" depart="25200.00">
        <route edges="154743410#0 154743410#1 154743410#2 9207798"/>
    </vehicle>
    <vehicle id="120100_120100_405" depart="25200.00">
        <route edges="154743410#0 154743410#1 154743410#2 9207798"/>
    </vehicle>
    <vehicle id="120158_120158_405" depart="25200.00">
        <route edges="36454807#3 150031205#0 150031205#1 28557537#6 23471151#0 23471151#1 50628731#1 150031207#6 8096211#0 26519352#0 8096212#1 165511531#1 8225109#0 85470309#3 85470309#4"/>
    </vehicle>
    <vehicle id="121020_121020_405" depart="25200.00">
        <route edges="154743410#0 154743410#1 154743410#2 9207798"/>
    </vehicle>
    <vehicle id="121173_121173_405" depart="25200.00">
        <route edges="154743410#0 154743410#1 154743410#2 9207798"/>
    </vehicle>
    <vehicle id="121192_121192_405" depart="25200.00">
        <route edges="154743410#0 154743410#1 154743410#2 9207798"/>
    </vehicle>
    <vehicle id="121760_121760_406" depart="25200.00">
        <route edges="185767958#1 36454807#0 36454807#1 36454807#3-AddedOnRampEdge 36454807#3 150031205#0 150031205#1 145474195#0 4380937#0 4380937#2 150031262#0 145575263"/>
    </vehicle>
    <vehicle id="121884_121884_406" depart="25200.00">
        <route edges="154743410#2 185767958#1 36454807#0 36454807#1 36454807#3-AddedOnRampEdge 36454807#3 150031205#0 150031205#1 145474195#0 4380937#0 4380937#2 150031262#0 145575263"/>
    </vehicle>
    <vehicle id="122139_122139_406" depart="25200.00">
        <route edges="36454807#3-AddedOnRampEdge 36454807#3 150031205#0 23471158#6 4401673#2 28557537#2"/>
    </vehicle>
    <vehicle id="122923_122923_406" depart="25200.00">
        <route edges="36454807#1 36454807#3-AddedOnRampEdge 36454807#3 150031205#0 23471158#6 23471158#9"/>
    </vehicle>
    <vehicle id="123987_123987_406" depart="25200.00">
        <route edges="8096211#0 26519352#0 8096212#1 165511531#1 8225109#0 85470309#3 85470309#4"/>
    </vehicle>
    <vehicle id="124026_124026_406" depart="25200.00">
        <route edges="154743410#0 154743410#1 154743410#2 9207798"/>
    </vehicle>
    <vehicle id="124099_124099_406" depart="25200.00">
        <route edges="185767958#1 36454807#0 36454807#1 36454807#3-AddedOnRampEdge 36454807#3 150031205#0 150031205#1 145474195#0 4380937#0 4380937#2 150031262#0 145575263"/>
    </vehicle>
    <vehicle id="124155_124155_406" depart="25200.00">
        <route edges="154743410#0 154743410#1 154743410#2 9207798"/>
    </vehicle>
    <vehicle id="124256_124256_406" depart="25200.00">
        <route edges="185767958#1 36454807#0 36454807#1 36454807#3-AddedOnRampEdge 36454807#3 150031205#0 150031205#1 145474195#0 4380937#0 4380937#2 150031262#0 145575263"/>
    </vehicle>
    <vehicle id="124336_124336_406" depart="25200.00">
        <route edges="154743410#1 154743410#2 9207798"/>
    </vehicle>
    <vehicle id="124351_124351_406" depart="25200.00">
        <route edges="36454807#3 150031205#0 150031205#1 145474195#0 4380937#0 4380937#2 150031262#0 145575263"/>
    </vehicle>
    <vehicle id="125000_125000_406" depart="25200.00">
        <route edges="185767958#1 36454807#0 36454807#1 36454807#3-AddedOnRampEdge 36454807#3 150031205#0 23471158#6 23471158#9"/>
    </vehicle>
    <vehicle id="125352_125352_406" depart="25200.00">
        <route edges="185767958#1 36454807#0 36454807#1 36454807#3-AddedOnRampEdge 36454807#3 150031205#0 150031205#1 145474195#0 4380937#0 4380937#2 150031262#0 145575263"/>
    </vehicle>
    <vehicle id="125441_125441_406" depart="25200.00">
        <route edges="185767958#1 36454807#0 36454807#1 36454807#3-AddedOnRampEdge 36454807#3 150031205#0 150031205#1 145474195#0 4380937#0 4380937#2 150031262#0 -27290012#2 4390554#1 29217219#0"/>
    </vehicle>
    <vehicle id="126121_126121_407" depart="25200.00">
        <route edges="36454807#0 36454807#1 36454807#3-AddedOnRampEdge 36454807#3 150031205#0 150031205#1 145474195#0 4380937#0 4380937#2 150031262#0 145575263"/>
    </vehicle>
    <vehicle id="126326_126326_407" depart="25200.00">
        <route edges="23015531#0 69366484#2 69366484#3 69366482#0 23015533 -210042206 -210039165#0"/>
    </vehicle>
    <vehicle id="126578_126578_407" depart="25200.00">
        <route edges="154743410#2 9207798"/>
    </vehicle>
    <vehicle id="126982_126982_407" depart="25200.00">
        <route edges="185767958#1 36454807#0 36454807#1 36454807#3-AddedOnRampEdge 36454807#3 150031205#0 150031205#1 28557537#6 23471151#0 23471151#1 23471151#3 23493261#0 28542995#0 28542995#2 28542995#4 23493260#0 23493260#4 23795527#0 50061433 -22873531#1 22873505#0 -22873505#1"/>
    </vehicle>
    <vehicle id="127584_127584_407" depart="25200.00">
        <route edges="185767958#1 36454807#0 36454807#1 36454807#3-AddedOnRampEdge 36454807#3 150031205#0 150031205#1 28557537#6 23471151#0 23471151#1 23471151#3 23493261#0 28542995#0 28542995#2 23493181#0 23493177#0 154755122#0"/>
    </vehicle>
    <vehicle id="128200_128200_408" depart="25200.00">
        <route edges="36454807#3 150031205#0 150031205#1 28557537#6 23471151#0 23471151#1 50628731#1 150031207#6 8096211#0 -154755102#2 4353628#0 4353628#1 26811376#0"/>
    </vehicle>
    <vehicle id="128447_128447_408" depart="25200.00">
        <route edges="185767958#1 36454807#0 36454807#1 36454807#3-AddedOnRampEdge 36454807#3 150031205#0 23471158#6 23471158#9"/>
    </vehicle>
    <vehicle id="128656_128656_408" depart="25200.00">
        <route edges="36454807#3-AddedOnRampEdge 36454807#3 150031205#0 150031205#1 28557537#6 23471151#0 129833341#0 129833339#1"/>
    </vehicle>
    <vehicle id="130300_130300_409" depart="25200.00">
        <route edges="185767959#0 185767958#1 36454807#0 36454807#1 36454807#3-AddedOnRampEdge 36454807#3 150031205#0 150031205#1 28557537#6 23471151#0 23471151#1 23471151#3 23493261#0 28542995#0 28542995#2 28542995#4 23493260#0 23493260#4 23493260#7"/>
    </vehicle>
    <vehicle id="130441_130441_409" depart="25200.00">
        <route edges="185767958#1 36454807#0 36454807#1 36454807#3-AddedOnRampEdge 36454807#3 150031205#0 150031205#1 28557537#6 23471151#0 23471151#1 50628731#1 150031207#6 8096211#0 26519352#0 8096212#1 165511531#1 8225109#0 85470309#3 85470309#4"/>
    </vehicle>
    <vehicle id="130996_130996_409" depart="25200.00">
        <route edges="154743410#0 154743410#1 154743410#2 9207798"/>
    </vehicle>
    <vehicle id="131469_131469_410" depart="25200.00">
        <route edges="36454807#3 150031205#0 150031205#1 145474195#0 4380937#0 4380937#2 150031262#0 145575263"/>
    </vehicle>
    <vehicle id="132004_132004_410" depart="25200.00">
        <route edges="154743410#0 154743410#1 154743410#2 185767958#1 150039002#5 150039002#6"/>
    </vehicle>
    <vehicle id="132586_132586_410" depart="25200.00">
        <route edges="154743410#0 154743410#1 154743410#2 9207798"/>
    </vehicle>
    <vehicle id="135168_135168_411" depart="25200.00">
        <route edges="-165515969#3 8096212#1 165511531#1 8225109#0 23015531#0 69366484#2 69366484#3 69366484#0 69366483 23567938 23493260#0 23493260#4 23493260#7"/>
    </vehicle>
    <vehicle id="135298_135298_411" depart="25200.00">
        <route edges="154743410#2 185767958#1 36454807#0 36454807#1 36454807#3-AddedOnRampEdge 36454807#3 150031205#0 150031205#1 28557537#6 23471151#0 23471151#1 50628731#1 150031207#6 8096211#0 26519352#0 165515969#0"/>
    </vehicle>
    <vehicle id="135639_135639_411" depart="25200.00">
        <route edges="154743410#0 154743410#1 154743410#2 185767958#1 36454807#0 36454807#1 36454807#3-AddedOnRampEdge 36454807#3 150031205#0 23471158#6 23471158#9"/>
    </vehicle>
    <vehicle id="135816_135816_411" depart="25200.00">
        <route edges="23471158#6 23471158#9"/>
    </vehicle>
    <vehicle id="139783_139783_413" depart="25200.00">
        <route edges="154743410#0 154743410#1 154743410#2 9207798"/>
    </vehicle>
    <vehicle id="140644_140644_414" depart="25200.00">
        <route edges="154743410#1 154743410#2 185767958#1 36454807#0 36454807#1 36454807#3-AddedOnRampEdge 36454807#3 150031205#0 150031205#1 28557537#6 23471151#0 23471151#1 23471151#3 23493261#0 28542995#0 28542995#2 28542995#4 23493260#0 23493260#4 23493260#7"/>
    </vehicle>
    <vehicle id="140838_140838_414" depart="25200.00">
        <route edges="165511531#1 8225109#0 23015531#0 69366484#2 69366484#3 69366484#0 69366483 23567938 23493260#0 23493260#4 23493260#7"/>
    </vehicle>
    <vehicle id="141739_141739_415" depart="25200.00">
        <route edges="23471151#1 23471151#3 23493261#0 28542995#0 28542995#2 28542995#4 -109063043 8225102"/>
    </vehicle>
    <vehicle id="142019_142019_415" depart="25200.00">
        <route edges="-8225101 -8096211#1 150031207#8 23493261#0 28542995#0 28542995#2 23493181#0 23493177#0 154755122#0"/>
    </vehicle>
    <vehicle id="142511_142511_415" depart="25200.00">
        <route edges="150031205#1 145474195#0 -167324659 167324659 55940134 186463490#0 -154755071 154755125#1"/>
    </vehicle>
    <vehicle id="142640_142640_415" depart="25200.00">
        <route edges="8096212#1 165511531#1 8225109#0 23015531#0 69366484#2 69366484#3 69366484#0 69366483 23567938 23493260#0 23493260#4 23493260#7"/>
    </vehicle>
    <vehicle id="143367_143367_415" depart="25200.00">
        <route edges="154743410#2 185767958#1 36454807#0 36454807#1 36454807#3-AddedOnRampEdge 36454807#3 150031205#0 150031205#1 28557537#6 23471151#0 23471151#1 23471151#3 23493261#0 28542995#0 28542995#2 28542995#4 23493260#0 23493260#4 23493260#7"/>
    </vehicle>
    <vehicle id="145277_145277_416" depart="25200.00">
        <route edges="145474195#0 4380937#0 4380937#2 150031262#0 145575263"/>
    </vehicle>
    <vehicle id="146065_146065_416" depart="25200.00">
        <route edges="185767959#0 9207798"/>
    </vehicle>
    <vehicle id="146819_146819_416" depart="25200.00">
        <route edges="-23471151#0 23471158#0 23471158#5 23471158#6 23471158#9"/>
    </vehicle>
    <vehicle id="147145_147145_416" depart="25200.00">
        <route edges="154755073#4 2837877"/>
    </vehicle>
    <vehicle id="147486_147486_416" depart="25200.00">
        <route edges="28889303#0 28889303#2 154743410#1"/>
    </vehicle>
    <vehicle id="148292_148292_417" depart="25200.00">
        <route edges="69366484#0 69366483 23567938 23493260#0 23493260#4 23493260#7"/>
    </vehicle>
    <vehicle id="149330_149330_417" depart="25200.00">
        <route edges="154755085#0 4400311#0"/>
    </vehicle>
    <vehicle id="149494_149494_417" depart="25200.00">
        <route edges="154743410#1 154743410#2 185767958#1 36454807#0 36454807#1 36454807#3-AddedOnRampEdge 36454807#3 150031205#0 150031205#1 145474195#0 4380937#0 4380937#2 150031262#0 145575263"/>
    </vehicle>
    <vehicle id="155268_155268_420" depart="25200.00">
        <route edges="150039002#2 36590979#0 36590979#0-AddedOffRampEdge 36590979#4"/>
    </vehicle>
    <vehicle id="157577_157577_421" depart="25200.00">
        <route edges="-165515969#3 8096212#1 165511531#1 8225109#0 23015531#0 69366484#2 69366484#3 69366482#0 23015529#0 37866521#1"/>
    </vehicle>
    <vehicle id="159697_159697_421" depart="25200.00">
        <route edges="154743410#0 154743410#1 154743410#2"/>
    </vehicle>
    <vehicle id="160035_160035_421" depart="25200.00">
        <route edges="8225127"/>
    </vehicle>
    <vehicle id="165758_165758_423" depart="25200.00">
        <route edges="28889303#2 154743410#1"/>
    </vehicle>
    <vehicle id="166034_166034_424" depart="25200.00">
        <route edges="-165515969#3 8096212#1 165511531#1 8225109#0 23015531#0 69366484#2 69366484#3 69366484#0 69366483 23567938 23493260#0 23493260#4 23493260#7"/>
    </vehicle>
    <vehicle id="171381_171381_426" depart="25200.00">
        <route edges="8096211#0 26519352#0 8096212#1 165511531#1 4401573 145261451"/>
    </vehicle>
    <vehicle id="71331_71331_383" depart="25200.00">
        <route edges="154743410#1 154743410#2 9207798"/>
    </vehicle>
    <vehicle id="71540_71540_383" depart="25200.00">
        <route edges="150031262#0 145575263"/>
    </vehicle>
    <vehicle id="71633_71633_383" depart="25200.00">
        <route edges="154743410#2 185767958#1 36454807#0 31876782#0 -154755100#1 -154755100#0"/>
    </vehicle>
    <vehicle id="72138_72138_383" depart="25200.00">
        <route edges="154743410#2 9207798"/>
    </vehicle>
    <vehicle id="72988_72988_384" depart="25200.00">
        <route edges="154743410#2 9207798"/>
    </vehicle>
    <vehicle id="79247_79247_387" depart="25200.00">
        <route edges="154743410#2 9207798"/>
    </vehicle>
    <vehicle id="80988_80988_388" depart="25200.00">
        <route edges="154743410#2 9207798"/>
    </vehicle>
    <vehicle id="81354_81354_389" depart="25200.00">
        <route edges="154743410#1 154755090#1 4378522#0"/>
    </vehicle>
    <vehicle id="81799_81799_389" depart="25200.00">
        <route edges="154743410#1 154743410#2 9207798"/>
    </vehicle>
    <vehicle id="83032_83032_390" depart="25200.00">
        <route edges="185767958#1 36454807#0 36454807#1 36454807#3-AddedOnRampEdge 36454807#3 150031205#0 150031205#1 145474195#0 4380937#0 4380937#2 150031262#0 145575263"/>
    </vehicle>
    <vehicle id="84933_84933_390" depart="25200.00">
        <route edges="154743410#1 154743410#2 9207798"/>
    </vehicle>
    <vehicle id="85971_85971_391" depart="25200.00">
        <route edges="154743410#1 154743410#2 9207798"/>
    </vehicle>
    <vehicle id="86116_86116_391" depart="25200.00">
        <route edges="23015554#0 23015778"/>
    </vehicle>
    <vehicle id="87270_87270_391" depart="25200.00">
        <route edges="36454807#3-AddedOnRampEdge 36454807#3 150031205#0 23471158#6 23471158#9"/>
    </vehicle>
    <vehicle id="89403_89403_391" depart="25200.00">
        <route edges="154743410#1 154743410#2 9207798"/>
    </vehicle>
    <vehicle id="89683_89683_391" depart="25200.00">
        <route edges="154743410#2 9207798"/>
    </vehicle>
    <vehicle id="91681_91681_392" depart="25200.00">
        <route edges="185767958#1 36454807#0 36454807#1 36454807#3-AddedOnRampEdge 36454807#3 150031205#0 150031205#1 28557537#6 23471151#0 23471151#1 50628731#1 150031207#6 8096211#0 26519352#0 8096212#1 165511531#1 8225109#0 23015531#0 69366484#2 69366484#3 69366484#0 69366483"/>
    </vehicle>
    <vehicle id="92049_92049_392" depart="25200.00">
        <route edges="154743410#1 154755090#1"/>
    </vehicle>
    <vehicle id="92132_92132_392" depart="25200.00">
        <route edges="185767958#1 36454807#0 36454807#1 36454807#3-AddedOnRampEdge 36454807#3 150031205#0 150031205#1 28557537#6 23471151#0 23471151#1 50628731#1 150031207#6 8096211#0 26519352#0 8096212#1 165511531#1 8225109#0 23015531#0 69366484#2 69366484#3 69366482#0 23015529#0"/>
    </vehicle>
    <vehicle id="92331_92331_392" depart="25200.00">
        <route edges="185767958#1 36454807#0 36454807#1 36454807#3-AddedOnRampEdge 36454807#3 150031205#0 150031205#1 28557537#6 23471151#0 23471151#1 23471151#3 23493261#0 28542995#0 28542995#2 23493181#0 23493177#0"/>
    </vehicle>
    <vehicle id="93221_93221_392" depart="25200.00">
        <route edges="36454807#0 36454807#1 36454807#3-AddedOnRampEdge 36454807#3 150031205#0 150031205#1 145474195#0 -167324659 -144935692#2 -144935692#1"/>
    </vehicle>
    <vehicle id="94083_94083_393" depart="25200.00">
        <route edges="154743410#1 154743410#2 9207798"/>
    </vehicle>
    <vehicle id="94784_94784_393" depart="25200.00">
        <route edges="154743410#0 154743410#1 154743410#2 9207798"/>
    </vehicle>
    <vehicle id="94886_94886_393" depart="25200.00">
        <route edges="154743410#2 185767958#1 36454807#0 36454807#1 36454807#3-AddedOnRampEdge 36454807#3 150031205#0 150031205#1 145474195#0 4380937#0 4380937#2 150031262#0 145575263"/>
    </vehicle>
    <vehicle id="95309_95309_394" depart="25200.00">
        <route edges="36454807#3-AddedOnRampEdge 36454807#3 150031205#0 150031205#1 28557537#6 23471151#0 23471151#1 50628731#1 150031207#6 8096211#0 26519352#0 165515969#0 51534019#0 8225127 8225124#0"/>
    </vehicle>
    <vehicle id="95486_95486_394" depart="25200.00">
        <route edges="23799989#0 4400200"/>
    </vehicle>
    <vehicle id="95769_95769_394" depart="25200.00">
        <route edges="154743410#1 154743410#2 9207798"/>
    </vehicle>
    <vehicle id="95888_95888_394" depart="25200.00">
        <route edges="23471151#3 154755096 -8225101"/>
    </vehicle>
    <vehicle id="96078_96078_394" depart="25200.00">
        <route edges="185767958#1 36454807#0 36454807#1 36454807#3-AddedOnRampEdge 36454807#3 150031205#0 150031205#1 145474195#0 4380937#0 4380937#2 150031262#0 145575263"/>
    </vehicle>
    <vehicle id="96231_96231_394" depart="25200.00">
        <route edges="154743410#2 9207798"/>
    </vehicle>
    <vehicle id="96363_96363_394" depart="25200.00">
        <route edges="185767958#1 36454807#0 36454807#1 36454807#3-AddedOnRampEdge 36454807#3 150031205#0 23471158#6 23471158#9"/>
    </vehicle>
    <vehicle id="96912_96912_395" depart="25200.00">
        <route edges="185767958#1 36454807#0 36454807#1 36454807#3-AddedOnRampEdge 36454807#3 150031205#0 150031205#1 145474195#0 4380937#0 4380937#2 150031262#0 145575263"/>
    </vehicle>
    <vehicle id="97507_97507_395" depart="25200.00">
        <route edges="154743410#0 154743410#1 154743410#2 9207798"/>
    </vehicle>
    <vehicle id="97629_97629_395" depart="25200.00">
        <route edges="185767958#1 150039002#5 150039002#6"/>
    </vehicle>
    <vehicle id="98076_98076_395" depart="25200.00">
        <route edges="36454807#3 150031205#0 150031205#1 28557537#6 23471151#0 23471151#1 50628731#1 150031207#6 8096211#0 26519352#0 165515969#0 26811074 -26811074"/>
    </vehicle>
    <vehicle id="98491_98491_395" depart="25200.00">
        <route edges="8096211#0 26519352#0 8096212#1 165511531#1 8225109#0 85470309#3 85470309#4"/>
    </vehicle>
    <vehicle id="128669_128669_408" depart="25201.00">
        <route edges="151057637#2 185767958#1 36454807#0 36454807#1 36454807#3-AddedOnRampEdge 36454807#3 150031205#0 23471158#6 23471158#9"/>
    </vehicle>
    <vehicle id="144871_144871_416" depart="25202.00">
        <route edges="37331980#0 37331980#2 186463493 150031203 186463491#0 145474196#1 145474196#4 150039002#0 150039002#2 36590979#0 36590979#0-AddedOffRampEdge 36590979#4"/>
    </vehicle>
    <vehicle id="143430_143430_415" depart="25205.00">
        <route edges="151057637#2 185767958#1 36454807#0 36454807#1 36454807#3-AddedOnRampEdge 36454807#3 150031205#0 23471158#6 23471158#9"/>
    </vehicle>
    <vehicle id="154144_154144_420" depart="25205.00">
        <route edges="37331980#0 37331980#2 186463493 150031203 186463491#0 145474196#1 145474196#4 150039002#0 150039002#2 36590979#0 36590979#0-AddedOffRampEdge 36590979#4"/>
    </vehicle>
    <vehicle id="155322_155322_420" depart="25205.00">
        <route edges="28557537#1 28557537#2 28557537#6 23471151#0 23471151#1 23471151#3 23493261#0 28542995#0 28542995#2 28542995#4 23493260#0 23493260#4 23493260#7"/>
    </vehicle>
    <vehicle id="137129_137129_412" depart="25207.00">
        <route edges="154755085#0 154755085#1"/>
    </vehicle>
    <vehicle id="166951_166951_424" depart="25207.00">
        <route edges="31694310#0 -26811074 -165515969#3 8096212#1 165511531#1 8225109#0 23015531#0 69366484#2 69366484#3 69366484#0 69366483 23567938 23493260#0 23493260#4 23493260#7"/>
    </vehicle>
    <vehicle id="145303_145303_416" depart="25208.00">
        <route edges="-200671461 22873531#0 -50061433"/>
    </vehicle>
    <vehicle id="156283_156283_420" depart="25208.00">
        <route edges="151057637#2 185767958#1 36454807#0 36454807#1 36454807#3-AddedOnRampEdge 36454807#3 150031205#0 150031205#1 28557537#6 23471151#0 23471151#1 50628731#1 150031207#6 8096211#0 26519352#0 8096212#1 165511531#1 4401573 8225166#0"/>
    </vehicle>
    <vehicle id="161602_161602_421" depart="25208.00">
        <route edges="28557537#1 28557537#2 28557537#6 23471151#0 23471151#1 23471151#3 23493261#0 28542995#0 28542995#2 28542995#4 23493260#0 23493260#4 23493260#7"/>
    </vehicle>
    <vehicle id="146668_146668_416" depart="25210.00">
        <route edges="31694310#0 -26811074 -165515969#3 8096212#1 165511531#1 8225109#0 23015531#0 69366484#2 69366484#3 69366482#0 23015529#0 37866521#1"/>
    </vehicle>
    <vehicle id="150585_150585_418" depart="25210.00">
        <route edges="154755085#0 154755085#1 83703645 23493040 23493177#0 154755122#0 29206900 26241634 4400194#0 177147101#0 177147101#1"/>
    </vehicle>
    <vehicle id="131750_131750_410" depart="25213.00">
        <route edges="151057637#2 185767958#1 36454807#0 36454807#1 36454807#3-AddedOnRampEdge 36454807#3 150031205#0 150031205#1 145474195#0 4380937#0 4380937#2 150031262#0 145575263"/>
    </vehicle>
    <vehicle id="119254_119254_405" depart="25214.00">
        <route edges="-200671461 22873531#0 -83823403#2 -69366482#2 69366484#0 69366484#1 -23015531#2 -8225109#2 4401573 145261451 -8225101 -8096211#1 150031207#8 -27602630#1 -23471151#2 -23471151#0 23471158#0 23471158#5 23471158#6 23471158#9"/>
    </vehicle>
    <vehicle id="145302_145302_416" depart="25215.00">
        <route edges="150031221"/>
    </vehicle>
    <vehicle id="152095_152095_419" depart="25215.00">
        <route edges="28557537#1 28557537#2 28557537#6 23471151#0 129833341#0 154755117 23800191#0"/>
    </vehicle>
    <vehicle id="142838_142838_415" depart="25216.00">
        <route edges="151057637#2 185767958#1 36454807#0 36454807#1 36454807#3-AddedOnRampEdge 36454807#3 150031205#0 150031205#1 145474195#0 4380937#0 4380937#2 150031262#0 145575263"/>
    </vehicle>
    <vehicle id="153141_153141_420" depart="25216.00">