<?xml version="1.0" encoding="UTF-8"?>

<!-- generated on Mon Jan  6 17:00:54 2014 by SUMO duarouter Version 0.19.0
<?xml version="1.0" encoding="UTF-8"?>

<configuration xmlns:xsi="http://www.w3.org/2001/XMLSchema-instance" xsi:noNamespaceSchemaLocation="http://sumo-sim.org/xsd/duarouterConfiguration.xsd">

    <input>
        <net-file value="map.net.xml"/>
        <trip-files value="map.alltrips.xml"/>
    </input>

    <output>
        <output-file value="map.rou.xml"/>
    </output>

</configuration>
-->

<routes xmlns:xsi="http://www.w3.org/2001/XMLSchema-instance" xsi:noNamespaceSchemaLocation="http://sumo-sim.org/xsd/routes_file.xsd">
    <vehicle id="100018_100018_396" depart="27000.00">
        <route edges="23471158#0 23471158#5 23471158#6 4401673#2 28557537#2"/>
    </vehicle>
    <vehicle id="100085_100085_396" depart="27000.00">
        <route edges="23493176 154755112#0 154755096 -8225101 -154755102#2 -186463490#1 186463490#1"/>
    </vehicle>
    <vehicle id="100171_100171_396" depart="27000.00">
        <route edges="23493177#0 122989592#2 23493176 154755112#0 -27602630#1 -23471151#2 -23471151#0 23471158#0 23471158#5 23471158#6 154755073#0 154755073#2 154755073#3 -154755073#3"/>
    </vehicle>
    <vehicle id="100594_100594_396" depart="27000.00">
        <route edges="36454807#3-AddedOnRampEdge 36454807#3 150031205#0 23471158#6 23471158#9"/>
    </vehicle>
    <vehicle id="100628_100628_396" depart="27000.00">
        <route edges="-23471151#2 -23471151#0 23471158#0 23471158#5 23471158#6 23471158#9 32856811#2"/>
    </vehicle>
    <vehicle id="100978_100978_396" depart="27000.00">
        <route edges="150031205#1 28557537#6 23471151#0 23471151#1 23471151#3 23493261#0 28542995#0 28542995#2 23493181#0 23493177#0 154755122#0"/>
    </vehicle>
    <vehicle id="101009_101009_396" depart="27000.00">
        <route edges="145474196#1 145474196#4 150039002#0 150039002#2"/>
    </vehicle>
    <vehicle id="101153_101153_396" depart="27000.00">
        <route edges="129833341#0 154755117 23800664 129861628#0"/>
    </vehicle>
    <vehicle id="101266_101266_396" depart="27000.00">
        <route edges="23493177#0 122989592#2 23493176 154755112#0 -27602630#1 -23471151#2 -23471151#0 23471158#0 23471158#5 23471158#6 23471158#9 32856811#2"/>
    </vehicle>
    <vehicle id="101376_101376_396" depart="27000.00">
        <route edges="23471158#0 23471158#5 23471158#6 23471158#9 32856811#2"/>
    </vehicle>
    <vehicle id="101387_101387_396" depart="27000.00">
        <route edges="122989592#2 23493176 154755112#0 -27602630#1 -23471151#2 -23471151#0 23471158#0 23471158#5 23471158#6 23471158#9 32856811#2"/>
    </vehicle>
    <vehicle id="101391_101391_396" depart="27000.00">
        <route edges="23471158#0 23471158#5 23471158#6 23471158#9 32856811#2"/>
    </vehicle>
    <vehicle id="101768_101768_396" depart="27000.00">
        <route edges="23493181#0 23493177#0 122989592#2"/>
    </vehicle>
    <vehicle id="101794_101794_396" depart="27000.00">
        <route edges="36454807#3-AddedOnRampEdge 36454807#3 150031205#0 23471158#6 154755073#0 2832027#0"/>
    </vehicle>
    <vehicle id="101796_101796_396" depart="27000.00">
        <route edges="122989592#2 23493176 154755112#0 -27602630#1 -23471151#2 -23471151#0 23471158#0 23471158#5 23471158#6 23471158#9 32856811#2"/>
    </vehicle>
    <vehicle id="101939_101939_396" depart="27000.00">
        <route edges="23471158#0 23471158#5 23471158#6 23471158#9 32856811#2"/>
    </vehicle>
    <vehicle id="102034_102034_396" depart="27000.00">
        <route edges="4401673#2 28557537#2 28557537#6 23471151#0 23471151#1 23471151#3 23493261#0 28542995#0 28542995#2 28542995#4 23493260#0 23493260#4"/>
    </vehicle>
    <vehicle id="102085_102085_396" depart="27000.00">
        <route edges="-23471151#2 -23471151#0 23471158#0 23471158#5 23471158#6 23471158#9 32856811#2"/>
    </vehicle>
    <vehicle id="102110_102110_396" depart="27000.00">
        <route edges="122989592#2 23493176 154755112#0 -27602630#1 -23471151#2 -23471151#0 23471158#0 23471158#5 23471158#6 23471158#9 32856811#2"/>
    </vehicle>
    <vehicle id="102471_102471_396" depart="27000.00">
        <route edges="4401673#2 4401673#6 4401673#8 -144935692#1"/>
    </vehicle>
    <vehicle id="103205_103205_397" depart="27000.00">
        <route edges="-27602630#1 -23471151#2 -23471151#0 23471158#0 23471158#5 23471158#6 23471158#9 32856811#2"/>
    </vehicle>
    <vehicle id="103272_103272_397" depart="27000.00">
        <route edges="150031205#1 145474196#1 145474196#4 150039002#0 150039002#2"/>
    </vehicle>
    <vehicle id="103310_103310_397" depart="27000.00">
        <route edges="83703645 23493040 23493177#0"/>
    </vehicle>
    <vehicle id="103410_103410_397" depart="27000.00">
        <route edges="-27602630#1 -23471151#2 -23471151#0 23471158#0 23471158#5 23471158#6 23471158#9 32856811#2"/>
    </vehicle>
    <vehicle id="103637_103637_397" depart="27000.00">
        <route edges="145474196#1 145474196#4 150039002#0 150039002#2"/>
    </vehicle>
    <vehicle id="104085_104085_397" depart="27000.00">
        <route edges="28557537#1 28557537#2 28557537#6 23471151#0 129833341#0 154755117 23800191#0 23800191#2 131651824 4400211#0 130875842"/>
    </vehicle>
    <vehicle id="104112_104112_397" depart="27000.00">
        <route edges="28557537#2 145474195#0 4380937#0 4380937#2 4380937#3"/>
    </vehicle>
    <vehicle id="104241_104241_397" depart="27000.00">
        <route edges="36454807#3-AddedOnRampEdge 36454807#3 150031205#0 23471158#6 4401673#2"/>
    </vehicle>
    <vehicle id="104274_104274_397" depart="27000.00">
        <route edges="-27602630#1 -23471151#2 -23471151#0 23471158#0 145474196#4 150039002#0 150039002#2"/>
    </vehicle>
    <vehicle id="104532_104532_397" depart="27000.00">
        <route edges="28557537#1 28557537#2 28557537#6 23471151#0 23471151#1 50628731#1 150031207#6 8096211#0 26519352#0 165515969#0"/>
    </vehicle>
    <vehicle id="104626_104626_397" depart="27000.00">
        <route edges="23493177#0 122989592#2 23493176 154755112#0 -27602630#1 -23471151#2 -23471151#0 23471158#0 23471158#5 23471158#6 154755073#0 2832027#0 2832027#1 36454807#3-AddedOnRampEdge"/>
    </vehicle>
    <vehicle id="104656_104656_397" depart="27000.00">
        <route edges="23493176 154755112#0 -27602630#1 -23471151#2 -23471151#0 23471158#0 145474196#4 150039002#0 150039002#2"/>
    </vehicle>
    <vehicle id="104726_104726_398" depart="27000.00">
        <route edges="23471158#5 23471158#6 23471158#9 32856811#2"/>
    </vehicle>
    <vehicle id="104792_104792_398" depart="27000.00">
        <route edges="122989592#2 23493176 154755112#0 -27602630#1 -23471151#2 -23471151#0 23471158#0 23471158#5 150031205#1 145474195#0 -167324659 -144935692#2 -144935692#1"/>
    </vehicle>
    <vehicle id="104952_104952_398" depart="27000.00">
        <route edges="4401673#2 28557537#2 145474195#0 4380937#0 4380937#2 150031262#0"/>
    </vehicle>
    <vehicle id="104968_104968_398" depart="27000.00">
        <route edges="-23471151#2 -23471151#0 23471158#0 23471158#5 23471158#6 23471158#9 32856811#2"/>
    </vehicle>
    <vehicle id="105094_105094_398" depart="27000.00">
        <route edges="-23471151#2 -23471151#0 23471158#0 23471158#5 23471158#6 23471158#9 32856811#2"/>
    </vehicle>
    <vehicle id="105142_105142_398" depart="27000.00">
        <route edges="23493177#0 122989592#2 23493176 154755112#0 -27602630#1 -23471151#2 -23471151#0 23471158#0 145474196#4 150039002#0 150039002#2"/>
    </vehicle>
    <vehicle id="105279_105279_398" depart="27000.00">
        <route edges="28557537#1 28557537#2 145474195#0 4380937#0 4380937#2 4380937#3"/>
    </vehicle>
    <vehicle id="105435_105435_398" depart="27000.00">
        <route edges="145474196#1"/>
    </vehicle>
    <vehicle id="105486_105486_398" depart="27000.00">
        <route edges="23493177#0 122989592#2 23493176 154755112#0 154755096 165515970#0 -145261460"/>
    </vehicle>
    <vehicle id="105532_105532_398" depart="27000.00">
        <route edges="23493177#0 122989592#2 23493176 154755112#0 -27602630#1 -23471151#2 129833341#0 154755117 23800664 130659365"/>
    </vehicle>
    <vehicle id="105618_105618_398" depart="27000.00">
        <route edges="23493176 154755112#0 154755096 -8225101 -154755102#2 -186463490#1 -186463490#0 -55940134 55940134"/>
    </vehicle>
    <vehicle id="105725_105725_398" depart="27000.00">
        <route edges="23493176 154755112#0 -27602630#1 -23471151#2 -23471151#0 23471158#0 23471158#5 23471158#6 23471158#9 32856811#2"/>
    </vehicle>
    <vehicle id="105828_105828_399" depart="27000.00">
        <route edges="28557537#2 28557537#6 23471151#0 23471151#1 23471151#3 23493261#0 28542995#0 28542995#2 28542995#4 23493260#0 23493260#4"/>
    </vehicle>
    <vehicle id="105903_105903_399" depart="27000.00">
        <route edges="28557537#1 28557537#2 28557537#6 23471151#0 23471151#1 23471151#3 23493261#0 28542995#0 28542995#2 28542995#4 23493260#0 23493260#4"/>
    </vehicle>
    <vehicle id="105924_105924_399" depart="27000.00">
        <route edges="36454807#3-AddedOnRampEdge 36454807#3 150031205#0 23471158#6 23471158#9 32856811#2"/>
    </vehicle>
    <vehicle id="105964_105964_399" depart="27000.00">
        <route edges="145474196#1"/>
    </vehicle>
    <vehicle id="106108_106108_399" depart="27000.00">
        <route edges="145474196#1 23471158#5 23471158#6 23471158#9 23471158#10"/>
    </vehicle>
    <vehicle id="106134_106134_399" depart="27000.00">
        <route edges="-23471151#2 -23471151#0 23471158#0 23471158#5 23471158#6 23471158#9 32856811#2"/>
    </vehicle>
    <vehicle id="106290_106290_399" depart="27000.00">
        <route edges="28557537#2 28557537#6 23471151#0 129833341#0 154755117 23800191#0 23800191#2 131651824 4400211#0 130875842"/>
    </vehicle>
    <vehicle id="106417_106417_399" depart="27000.00">
        <route edges="154755112#0 154755096 -8225101 -154755102#2 -186463490#1 186463490#1"/>
    </vehicle>
    <vehicle id="106535_106535_399" depart="27000.00">
        <route edges="36454807#3-AddedOnRampEdge 36454807#3 150031205#0 23471158#6 23471158#9 32856811#2"/>
    </vehicle>
    <vehicle id="106561_106561_399" depart="27000.00">
        <route edges="-154755073#1 4401673#2 28557537#2 145474195#0 4380937#0 4380937#2 4380937#3"/>
    </vehicle>
    <vehicle id="106565_106565_399" depart="27000.00">
        <route edges="4394727#2 28557537#1 28557537#2 28557537#6 23471151#0 23471151#1 23471151#3 23493261#0 28542995#0 28542995#2 28542995#4 23493260#0 23493260#4"/>
    </vehicle>
    <vehicle id="106732_106732_399" depart="27000.00">
        <route edges="122989592#2 23493176 154755112#0 -27602630#1 -23471151#2 -23471151#0 23471158#0 23471158#5 23471158#6 23471158#9 32856811#2"/>
    </vehicle>
    <vehicle id="107400_107400_400" depart="27000.00">
        <route edges="28557537#2 28557537#6 23471151#0 23471151#1 23471151#3 23493261#0 28542995#0 28542995#2 28542995#4 23493260#0 23493260#4"/>
    </vehicle>
    <vehicle id="107496_107496_400" depart="27000.00">
        <route edges="23493040 23493177#0 122989592#2 23493176 154755112#0 -27602630#1 -23471151#2 -23471151#0 23471158#0 23471158#5 23471158#6 23471158#9 32856811#2"/>
    </vehicle>
    <vehicle id="107500_107500_400" depart="27000.00">
        <route edges="28557537#2 28557537#6 23471151#0 23471151#1 23471151#3 23493261#0 28542995#0 28542995#2 28542995#4 23493260#0 23493260#4"/>
    </vehicle>
    <vehicle id="107777_107777_400" depart="27000.00">
        <route edges="28557537#2 28557537#6 23471151#0 23471151#1 23471151#3 23493261#0 28542995#0 28542995#2 28542995#4 23493260#0 23493260#4"/>
    </vehicle>
    <vehicle id="107908_107908_400" depart="27000.00">
        <route edges="23493176 154755112#0 -27602630#1 -23471151#2 -23471151#0 23471158#0 23471158#5 23471158#6 23471158#9 32856811#2"/>
    </vehicle>
    <vehicle id="108298_108298_400" depart="27000.00">
        <route edges="36454807#3 150031205#0 23471158#6 23471158#9 32856811#2"/>
    </vehicle>
    <vehicle id="108432_108432_400" depart="27000.00">
        <route edges="122989592#2 23493176 154755112#0 -27602630#1 -23471151#2 -23471151#0 23471158#0 23471158#5 23471158#6 23471158#9 32856811#2"/>
    </vehicle>
    <vehicle id="108608_108608_400" depart="27000.00">
        <route edges="145474196#1 145474196#4 150039002#0 150039002#2"/>
    </vehicle>
    <vehicle id="108705_108705_400" depart="27000.00">
        <route edges="36454807#3 150031205#0 23471158#6 23471158#9 32856811#2"/>
    </vehicle>
    <vehicle id="108921_108921_400" depart="27000.00">
        <route edges="23493177#0 122989592#2 23493176 154755112#0 -27602630#1 -23471151#2 -23471151#0 23471158#0 23471158#5 23471158#6 23471158#9 32856811#2"/>
    </vehicle>
    <vehicle id="109135_109135_400" depart="27000.00">
        <route edges="186463491#0 145474196#1 23471158#5 23471158#6 23471158#9 32856811#2"/>
    </vehicle>
    <vehicle id="109236_109236_400" depart="27000.00">
        <route edges="4394727#2 4394727#5 32856811#2"/>
    </vehicle>
    <vehicle id="109471_109471_401" depart="27000.00">
        <route edges="28557537#1 28557537#2 145474196#1 145474196#4 150039002#0 150039002#2"/>
    </vehicle>
    <vehicle id="109483_109483_401" depart="27000.00">
        <route edges="122989592#2 23493176 53212166#0 53212166#4 28542995#0 8225148 33511920 85470315"/>
    </vehicle>
    <vehicle id="109579_109579_401" depart="27000.00">
        <route edges="23493177#0 122989592#2"/>
    </vehicle>
    <vehicle id="109610_109610_401" depart="27000.00">
        <route edges="28557537#1 28557537#2 28557537#6 23471151#0 23471151#1 23471151#3 23493261#0 28542995#0 28542995#2 28542995#4 23493260#0 23493260#4"/>
    </vehicle>
    <vehicle id="109818_109818_401" depart="27000.00">
        <route edges="150031203 186463491#0 145474196#1 145474196#4 150039002#0 150039002#2"/>
    </vehicle>
    <vehicle id="109930_109930_401" depart="27000.00">
        <route edges="28557537#1 28557537#2 145474196#1 145474196#4 150039002#0 150039002#2"/>
    </vehicle>
    <vehicle id="110327_110327_401" depart="27000.00">
        <route edges="53212166#0 53212166#4 28542995#0 28542995#2"/>
    </vehicle>
    <vehicle id="110372_110372_401" depart="27000.00">
        <route edges="28557537#2 145474196#1 145474196#4 150039002#0 150039002#2"/>
    </vehicle>
    <vehicle id="110659_110659_401" depart="27000.00">
        <route edges="28557537#2 28557537#6 23471151#0 23471151#1 23471151#3 23493261#0 28542995#0 28542995#2 28542995#4 23493260#0 23493260#4"/>
    </vehicle>
    <vehicle id="110665_110665_401" depart="27000.00">
        <route edges="28557537#1 28557537#2 28557537#6 23471151#0 23471151#1 23471151#3 23493261#0 28542995#0 28542995#2 28542995#4 23493260#0 23493260#4"/>
    </vehicle>
    <vehicle id="110934_110934_401" depart="27000.00">
        <route edges="28557537#1 28557537#2 28557537#6 23471151#0 23471151#1 23471151#3 23493261#0 28542995#0 28542995#2 28542995#4 23493260#0 23493260#4"/>
    </vehicle>
    <vehicle id="111046_111046_401" depart="27000.00">
        <route edges="186463491#0 145474196#1 23471158#5 23471158#6 154755073#0 154755073#2 154755073#3"/>
    </vehicle>
    <vehicle id="111096_111096_401" depart="27000.00">
        <route edges="23493177#0 122989592#2 154755115#0 4400297#0 205044667 53212168#0 130875842"/>
    </vehicle>
    <vehicle id="111199_111199_401" depart="27000.00">
        <route edges="28557537#2 28557537#6 23471151#0 23471151#1 23471151#3 23493261#0 28542995#0 28542995#2 28542995#4 23493260#0 23493260#4"/>
    </vehicle>
    <vehicle id="111405_111405_401" depart="27000.00">
        <route edges="4401673#2 28557537#2 145474195#0 4380937#0 4380937#2 4380937#3"/>
    </vehicle>
    <vehicle id="111586_111586_401" depart="27000.00">
        <route edges="36454807#3 150031205#0 23471158#6 23471158#9"/>
    </vehicle>
    <vehicle id="112046_112046_401" depart="27000.00">
        <route edges="36454807#3-AddedOnRampEdge 36454807#3 150031205#0 23471158#6 154755073#0 2832027#0 2832027#1"/>
    </vehicle>
    <vehicle id="112128_112128_401" depart="27000.00">
        <route edges="28557537#1 28557537#2 28557537#6 23471151#0 129833341#0 154755117 23800191#0 23800191#2 131651824 4400211#0 130875842"/>
    </vehicle>
    <vehicle id="112321_112321_401" depart="27000.00">
        <route edges="23471158#0 23471158#5 23471158#6 23471158#9 32856811#2"/>
    </vehicle>
    <vehicle id="112526_112526_401" depart="27000.00">
        <route edges="-27602630#3 -27602630#1 -23471151#2 -23471151#0 23471158#0 23471158#5 23471158#6 23471158#9 32856811#2"/>
    </vehicle>
    <vehicle id="112691_112691_402" depart="27000.00">
        <route edges="-154755073#1 4401673#2 28557537#2 28557537#6 23471151#0 23471151#1 23471151#3 23493261#0 28542995#0 28542995#2 28542995#4 23493260#0 23493260#4"/>
    </vehicle>
    <vehicle id="112729_112729_402" depart="27000.00">
        <route edges="23493177#0 122989592#2 23493176 154755112#0 -27602630#1 -23471151#2 -23471151#0 23471158#0 145474196#4 150039002#0 150039002#2"/>
    </vehicle>
    <vehicle id="113217_113217_402" depart="27000.00">
        <route edges="23493176 154755112#0 154755096"/>
    </vehicle>
    <vehicle id="113330_113330_402" depart="27000.00">
        <route edges="28557537#2 28557537#6 23471151#0 23471151#1 23471151#3 23493261#0 28542995#0 28542995#2 28542995#4 23493260#0"/>
    </vehicle>
    <vehicle id="113645_113645_402" depart="27000.00">
        <route edges="23493040 23493177#0 122989592#2 23493176 154755112#0 154755096 -8225101 26519352#0 165515969#0"/>
    </vehicle>
    <vehicle id="113726_113726_402" depart="27000.00">
        <route edges="23493177#0 122989592#2 23493176 154755112#0 -27602630#1 -23471151#2 -23471151#0 23471158#0 23471158#5 23471158#6 23471158#9 32856811#2"/>
    </vehicle>
    <vehicle id="113752_113752_402" depart="27000.00">
        <route edges="23493177#0 122989592#2 23493176 154755112#0 -27602630#1 -23471151#2 -23471151#0 23471158#0 145474196#4 150039002#0 150039002#2"/>
    </vehicle>
    <vehicle id="113847_113847_402" depart="27000.00">
        <route edges="28557537#1 28557537#2 28557537#6 23471151#0 129833341#0 154755117 23800191#0 23800191#2 131651824 4400211#0 130875842"/>
    </vehicle>
    <vehicle id="113983_113983_402" depart="27000.00">
        <route edges="23493176 154755112#0 -27602630#1 -23471151#2 -23471151#0 23471158#0 23471158#5 150031205#1 145474195#0 4380937#0 4380937#2 4380937#3"/>
    </vehicle>
    <vehicle id="114280_114280_402" depart="27000.00">
        <route edges="28557537#2 145474196#1 145474196#4 150039002#0 150039002#2"/>
    </vehicle>
    <vehicle id="114404_114404_402" depart="27000.00">
        <route edges="145474196#1 23471158#5 23471158#6 23471158#9 154755082#0 154755082#2"/>
    </vehicle>
    <vehicle id="114440_114440_402" depart="27000.00">
        <route edges="4401673#2 28557537#2 145474195#0 4380937#0 4380937#2 150031262#0"/>
    </vehicle>
    <vehicle id="114519_114519_402" depart="27000.00">
        <route edges="28557537#2 28557537#6 23471151#0 23471151#1 23471151#3 23493261#0 28542995#0 28542995#2 28542995#4 23493260#0 23493260#4"/>
    </vehicle>
    <vehicle id="114752_114752_403" depart="27000.00">
        <route edges="4401673#2 28557537#2 145474195#0 4380937#0 4380937#2 4380937#3"/>
    </vehicle>
    <vehicle id="114946_114946_403" depart="27000.00">
        <route edges="154755112#0 -27602630#1 -23471151#2 -23471151#0 23471158#0 23471158#5 23471158#6 23471158#9 32856811#2"/>
    </vehicle>
    <vehicle id="115079_115079_403" depart="27000.00">
        <route edges="186463491#0 145474196#1 23471158#5 23471158#6 23471158#9 32856811#2"/>
    </vehicle>
    <vehicle id="115222_115222_403" depart="27000.00">
        <route edges="23493177#0 122989592#2 23493176 154755112#0 -27602630#1 -23471151#2 -23471151#0 23471158#0 23471158#5 23471158#6 23471158#9"/>
    </vehicle>
    <vehicle id="115307_115307_403" depart="27000.00">
        <route edges="122989592#2 23493176 154755112#0 -27602630#1 -23471151#2 -23471151#0 23471158#0 145474196#4 150039002#0 150039002#2"/>
    </vehicle>
    <vehicle id="115432_115432_403" depart="27000.00">
        <route edges="28557537#1 28557537#2 28557537#6 23471151#0 23471151#1 23471151#3 23493261#0 28542995#0 28542995#2 28542995#4 23493260#0 23493260#4"/>
    </vehicle>
    <vehicle id="116229_116229_404" depart="27000.00">
        <route edges="129861628#0 129833340#2 23471151#1 50628731#1 150031207#6 8096211#0 26519352#0 8096212#1 165511531#1 8225109#0 85470309#3"/>
    </vehicle>
    <vehicle id="116506_116506_404" depart="27000.00">
        <route edges="23493177#0 122989592#2 23493176 154755112#0 -27602630#1 -23471151#2 -23471151#0 23471158#0 145474196#4 150039002#0 150039002#2"/>
    </vehicle>
    <vehicle id="116508_116508_404" depart="27000.00">
        <route edges="28557537#1 28557537#2 28557537#6 23471151#0 23471151#1 23471151#3 23493261#0 28542995#0 28542995#2 28542995#4 23493260#0 23493260#4"/>
    </vehicle>
    <vehicle id="116770_116770_404" depart="27000.00">
        <route edges="186463491#0 145474196#1 145474196#4 150039002#0 150039002#2"/>
    </vehicle>
    <vehicle id="116988_116988_404" depart="27000.00">
        <route edges="23493177#0 122989592#2 23493176 154755112#0 -27602630#1 -23471151#2 -23471151#0 23471158#0 23471158#5 23471158#6 23471158#9 32856811#2"/>
    </vehicle>
    <vehicle id="117496_117496_404" depart="27000.00">
        <route edges="23493177#0 122989592#2 23493176 154755112#0 -27602630#1 -23471151#2 -23471151#0 23471158#0 23471158#5 23471158#6 23471158#9 32856811#2"/>
    </vehicle>
    <vehicle id="117838_117838_404" depart="27000.00">
        <route edges="4401673#2 28557537#2 28557537#6 23471151#0 23471151#1 23471151#3 23493261#0 28542995#0 28542995#2 28542995#4 23493260#0 23493260#4"/>
    </vehicle>
    <vehicle id="117915_117915_404" depart="27000.00">
        <route edges="145474196#1 23471158#5 23471158#6 23471158#9 32856811#2"/>
    </vehicle>
    <vehicle id="118138_118138_405" depart="27000.00">
        <route edges="4401673#2 28557537#2 145474195#0 4380937#0 4380937#2 4380937#3"/>
    </vehicle>
    <vehicle id="118174_118174_405" depart="27000.00">
        <route edges="23493181#0 23493177#0 122989592#2"/>
    </vehicle>
    <vehicle id="118393_118393_405" depart="27000.00">
        <route edges="122989592#2 23493176 154755112#0 -27602630#1 -23471151#2 -23471151#0 23471158#0 23471158#5 23471158#6 23471158#9 154755082#0 154755082#2"/>
    </vehicle>
    <vehicle id="118681_118681_405" depart="27000.00">
        <route edges="23471158#6 23471158#9 32856811#2"/>
    </vehicle>
    <vehicle id="118881_118881_405" depart="27000.00">
        <route edges="186463493 150031203 186463491#0 145474196#1 23471158#5 23471158#6 23471158#9 154755082#0 -154755082#1"/>
    </vehicle>
    <vehicle id="119155_119155_405" depart="27000.00">
        <route edges="186463493 150031203 186463491#0 145474196#1 145474196#4 150039002#0 150039002#2"/>
    </vehicle>
    <vehicle id="119243_119243_405" depart="27000.00">
        <route edges="186463493 150031203 186463491#0 145474196#1 23471158#5 23471158#6 23471158#9 23471158#10"/>
    </vehicle>
    <vehicle id="119472_119472_405" depart="27000.00">
        <route edges="28557537#2 145474195#0 4380937#0 4380937#2 4380937#3"/>
    </vehicle>
    <vehicle id="119489_119489_405" depart="27000.00">
        <route edges="28557537#1 28557537#2 28557537#6 23471151#0 129833341#0 154755117 23800191#0 23800191#2 23800191#3"/>
    </vehicle>
    <vehicle id="119857_119857_405" depart="27000.00">
        <route edges="28557537#2 28557537#6 23471151#0 23471151#1 23471151#3 23493261#0 28542995#0 28542995#2 28542995#4 23493260#0 23493260#4"/>
    </vehicle>
    <vehicle id="120150_120150_405" depart="27000.00">
        <route edges="23493177#0 122989592#2 23493176 154755112#0 -27602630#1 -23471151#2 -23471151#0 23471158#0 145474196#4 150039002#0 150039002#2"/>
    </vehicle>
    <vehicle id="120792_120792_405" depart="27000.00">
        <route edges="23493040 23493177#0 122989592#2 23493176 154755112#0 154755096 -8225101 -154755102#2 4353628#0 4353628#1 26811376#0"/>
    </vehicle>
    <vehicle id="120988_120988_405" depart="27000.00">
        <route edges="28557537#1 28557537#2 28557537#6 23471151#0 23471151#1 23471151#3 23493261#0 28542995#0 28542995#2 28542995#4 23493260#0 23493260#4"/>
    </vehicle>
    <vehicle id="121213_121213_405" depart="27000.00">
        <route edges="28557537#1 28557537#2 28557537#6 23471151#0 23471151#1 23471151#3 23493261#0 28542995#0 28542995#2 28542995#4 23493260#0 23493260#4"/>
    </vehicle>
    <vehicle id="121667_121667_406" depart="27000.00">
        <route edges="28557537#2 28557537#6 23471151#0 23471151#1 23471151#3 23493261#0 28542995#0 28542995#2 28542995#4 23493260#0 23493260#4"/>
    </vehicle>
    <vehicle id="121877_121877_406" depart="27000.00">
        <route edges="23800664 130659365 50628731#0 50628731#1 150031207#6 8096211#0 -154755102#2 154755102#0"/>
    </vehicle>
    <vehicle id="121961_121961_406" depart="27000.00">
        <route edges="23493181#0 23493177#0 122989592#2 23493176"/>
    </vehicle>
    <vehicle id="122434_122434_406" depart="27000.00">
        <route edges="186463493 150031203 186463491#0 28557537#6 23471151#0 129833341#0 154755117 23800191#0 23800191#2 131651824 4400211#0 130875842"/>
    </vehicle>
    <vehicle id="122436_122436_406" depart="27000.00">
        <route edges="-154755073#2 -154755073#1 4401673#2 28557537#2 28557537#6 23471151#0 23471151#1 23471151#3 23493261#0 28542995#0 28542995#2 28542995#4 23493260#0 23493260#4"/>
    </vehicle>
    <vehicle id="122617_122617_406" depart="27000.00">
        <route edges="131651824 4400211#0 130875842"/>
    </vehicle>
    <vehicle id="122773_122773_406" depart="27000.00">
        <route edges="-154755073#1 4401673#2 28557537#2 145474195#0 4380937#0 4380937#2 4380937#3"/>
    </vehicle>
    <vehicle id="122933_122933_406" depart="27000.00">
        <route edges="28557537#1 28557537#2"/>
    </vehicle>
    <vehicle id="123467_123467_406" depart="27000.00">
        <route edges="23471158#6 23471158#9 32856811#2"/>
    </vehicle>
    <vehicle id="123544_123544_406" depart="27000.00">
        <route edges="28557537#1 28557537#2 28557537#6 23471151#0 129833341#0 154755117 23800191#0 23800191#2 131651824 4400211#0 130875842"/>
    </vehicle>
    <vehicle id="123771_123771_406" depart="27000.00">
        <route edges="145474196#1 23471158#5 23471158#6 23471158#9 154755082#0 154755082#2 -154755082#2"/>
    </vehicle>
    <vehicle id="123956_123956_406" depart="27000.00">
        <route edges="23493181#0 23493177#0 122989592#2 154755115#0 154755115#2 23493179"/>
    </vehicle>
    <vehicle id="124120_124120_406" depart="27000.00">
        <route edges="23471158#0 23471158#5 23471158#6 23471158#9 32856811#2"/>
    </vehicle>
    <vehicle id="124454_124454_406" depart="27000.00">
        <route edges="28557537#1 28557537#2 28557537#6 23471151#0 23471151#1 23471151#3 23493261#0 28542995#0 28542995#2 28542995#4 23493260#0 23493260#4"/>
    </vehicle>
    <vehicle id="124471_124471_406" depart="27000.00">
        <route edges="28557537#1 28557537#2 145474195#0 4380937#0 4380937#2 4380937#3"/>
    </vehicle>
    <vehicle id="124508_124508_406" depart="27000.00">
        <route edges="150031203 186463491#0 145474196#1 145474196#4 150039002#0 150039002#2"/>
    </vehicle>
    <vehicle id="124709_124709_406" depart="27000.00">
        <route edges="150031203 186463491#0 145474196#1 145474196#4 150039002#0 150039002#2"/>
    </vehicle>
    <vehicle id="124883_124883_406" depart="27000.00">
        <route edges="4401673#2 28557537#2 145474195#0 4380937#0 4380937#2 4380937#3"/>
    </vehicle>
    <vehicle id="125291_125291_406" depart="27000.00">
        <route edges="23493177#0 122989592#2 154755115#0 4400297#0 205044667 53212168#0 130875842"/>
    </vehicle>
    <vehicle id="125571_125571_406" depart="27000.00">
        <route edges="150031203 186463491#0 145474196#1 145474196#4 150039002#0 150039002#2"/>
    </vehicle>
    <vehicle id="125681_125681_406" depart="27000.00">
        <route edges="186463493 150031203 186463491#0 28557537#6 23471151#0 23471151#1 23471151#3 23493261#0 28542995#0 28542995#2 23493181#0"/>
    </vehicle>
    <vehicle id="125812_125812_406" depart="27000.00">
        <route edges="36454807#3 150031205#0 23471158#6 23471158#9 32856811#2"/>
    </vehicle>
    <vehicle id="126060_126060_407" depart="27000.00">
        <route edges="186463493 150031203 186463491#0 145474196#1 145474196#4 150039002#0 150039002#2"/>
    </vehicle>
    <vehicle id="126098_126098_407" depart="27000.00">
        <route edges="28557537#2 28557537#6 23471151#0 23471151#1 23471151#3 154755096 -8225101"/>
    </vehicle>
    <vehicle id="126413_126413_407" depart="27000.00">
        <route edges="28557537#2 28557537#6 23471151#0 23471151#1 23471151#3 23493261#0 28542995#0 28542995#2 23493181#0 23493177#0 154755122#0 29207110 36564599"/>
    </vehicle>
    <vehicle id="126628_126628_407" depart="27000.00">
        <route edges="150031205#1 28557537#6 23471151#0 23471151#1 23471151#3 23493261#0 28542995#0 28542995#2 28542995#4 23493260#0 23493260#4"/>
    </vehicle>
    <vehicle id="127256_127256_407" depart="27000.00">
        <route edges="150031203 186463491#0 145474196#1 145474196#4 150039002#0 150039002#2"/>
    </vehicle>
    <vehicle id="127664_127664_407" depart="27000.00">
        <route edges="186463493 150031203 186463491#0 145474196#1 145474196#4 150039002#0 150039002#2"/>
    </vehicle>
    <vehicle id="127683_127683_407" depart="27000.00">
        <route edges="145474196#1 23471158#5 23471158#6 23471158#9 32856811#2"/>
    </vehicle>
    <vehicle id="127937_127937_407" depart="27000.00">