<?xml version="1.0" encoding="iso-8859-1"?>
<configuration xmlns:xsi="http://www.w3.org/2001/XMLSchema-instance" xsi:noNamespaceSchemaLocation="http://sumo.sf.net/xsd/sumoConfiguration.xsd">
    <input>
        <net-file value="map.net.xml"/>
        <route-files value="mapReduced.rou.xml"/>
        <additional-files value="cologne.poly.xml"/>
    </input>
    <output>
	<tripinfo-output value="maptripinfoWOSimpleAll2.out.xml"/>    
    </output>

   <time>
         <begin value="27000"/>
	 <end value="27900"/>
    </time>

     <processing>
        <route-steps value="200"/>
        <time-to-teleport value="300"/>  
        <scale value="1"/>   
        <lanechange.allow-swap value="True"/>
    </processing>
    <report>
	<no-step-log value="true"/>
    </report>
</configuration>
